
     RDKit          3D

106103  0  0  0  0  0  0  0  0999 V2000
    2.9640   28.2460   17.0400 N   0  0  0  0  0  0  0  0  0  0  0  0
    4.4240   28.2470   16.9930 C   0  0  2  0  0  0  0  0  0  0  0  0
    4.8490   29.4560   16.1830 C   0  0  0  0  0  0  0  0  0  0  0  0
    4.4640   29.5850   15.0230 O   0  0  0  0  0  0  0  0  0  0  0  0
    4.9340   26.9730   16.3510 C   0  0  0  0  0  0  0  0  0  0  0  0
    5.6250   30.3510   16.7810 N   0  0  0  0  0  0  0  0  0  0  0  0
    5.9890   31.5580   16.0640 C   0  0  2  0  0  0  0  0  0  0  0  0
    7.4720   31.8620   16.0420 C   0  0  0  0  0  0  0  0  0  0  0  0
    7.8860   32.9950   15.8120 O   0  0  0  0  0  0  0  0  0  0  0  0
    5.1850   32.7340   16.6000 C   0  0  0  0  0  0  0  0  0  0  0  0
    3.7930   32.4430   16.5540 O   0  0  0  0  0  0  0  0  0  0  0  0
    8.2690   30.8380   16.2690 N   0  0  0  0  0  0  0  0  0  0  0  0
    9.7030   30.9760   16.2110 C   0  0  2  0  0  0  0  0  0  0  0  0
   10.2290   29.6210   15.8060 C   0  0  0  0  0  0  0  0  0  0  0  0
    9.5120   28.6220   15.9000 O   0  0  0  0  0  0  0  0  0  0  0  0
   10.2790   31.3970   17.5670 C   0  0  0  0  0  0  0  0  0  0  0  0
   10.4130   30.3020   18.4570 O   0  0  0  0  0  0  0  0  0  0  0  0
   11.4450   29.5670   15.2600 N   0  0  0  0  0  0  0  0  0  0  0  0
   11.9850   28.2620   14.8730 C   0  0  2  0  0  0  0  0  0  0  0  0
   11.9430   27.2760   16.0570 C   0  0  0  0  0  0  0  0  0  0  0  0
   11.4840   26.1360   15.9210 O   0  0  0  0  0  0  0  0  0  0  0  0
   13.4150   28.6100   14.4760 C   0  0  0  0  0  0  0  0  0  0  0  0
   13.2640   29.9760   13.8890 C   0  0  0  0  0  0  0  0  0  0  0  0
   12.3450   30.6600   14.8610 C   0  0  0  0  0  0  0  0  0  0  0  0
   12.3300   27.7840   17.2290 N   0  0  0  0  0  0  0  0  0  0  0  0
   12.3750   27.0370   18.4830 C   0  0  2  0  0  0  0  0  0  0  0  0
   11.0080   26.4970   18.8710 C   0  0  0  0  0  0  0  0  0  0  0  0
   10.9050   25.3830   19.3870 O   0  0  0  0  0  0  0  0  0  0  0  0
   12.8800   27.9380   19.6010 C   0  0  0  0  0  0  0  0  0  0  0  0
   14.1540   28.7300   19.3380 C   0  0  0  0  0  0  0  0  0  0  0  0
   14.5540   29.4870   20.5950 C   0  0  0  0  0  0  0  0  0  0  0  0
   15.2430   27.7810   18.9300 C   0  0  0  0  0  0  0  0  0  0  0  0
    8.7140   25.7770   16.8680 N   0  0  0  0  0  0  0  0  0  0  0  0
    8.4540   24.7090   15.9240 C   0  0  2  0  0  0  0  0  0  0  0  0
    9.1060   23.4120   16.3670 C   0  0  0  0  0  0  0  0  0  0  0  0
    8.4280   22.3870   16.4640 O   0  0  0  0  0  0  0  0  0  0  0  0
    8.8910   25.1190   14.5330 C   0  0  0  0  0  0  0  0  0  0  0  0
    7.8460   25.8950   13.8060 C   0  0  0  0  0  0  0  0  0  0  0  0
    8.0510   27.1820   13.3510 N   0  0  0  0  0  0  0  0  0  0  0  0
    6.5660   25.5800   13.4890 C   0  0  0  0  0  0  0  0  0  0  0  0
    6.9410   27.6270   12.7860 C   0  0  0  0  0  0  0  0  0  0  0  0
    6.0250   26.6750   12.8580 N   0  0  0  0  0  0  0  0  0  0  0  0
   10.4070   23.4610   16.6480 N   0  0  0  0  0  0  0  0  0  0  0  0
   11.1160   22.2880   17.1370 C   0  0  2  0  0  0  0  0  0  0  0  0
   10.3990   21.7740   18.3870 C   0  0  0  0  0  0  0  0  0  0  0  0
    9.9580   20.6310   18.4540 O   0  0  0  0  0  0  0  0  0  0  0  0
   12.5380   22.6520   17.5600 C   0  0  0  0  0  0  0  0  0  0  0  0
   13.4450   22.9960   16.4000 C   0  0  0  0  0  0  0  0  0  0  0  0
   13.1110   22.6760   15.2360 O   0  0  0  0  0  0  0  0  0  0  0  0
   14.5180   23.5850   16.6750 O   0  0  0  0  0  0  0  0  0  0  0  0
   10.2580   22.6590   19.3610 N   0  0  0  0  0  0  0  0  0  0  0  0
    9.6260   22.3250   20.6190 C   0  0  2  0  0  0  0  0  0  0  0  0
    8.2490   21.6930   20.4550 C   0  0  0  0  0  0  0  0  0  0  0  0
    7.9820   20.6440   21.0310 O   0  0  0  0  0  0  0  0  0  0  0  0
    9.5650   23.5680   21.5220 C   0  0  0  0  0  0  0  0  0  0  0  0
    8.7610   23.4120   22.8110 C   0  0  0  0  0  0  0  0  0  0  0  0
    7.3030   23.8360   22.6610 C   0  0  0  0  0  0  0  0  0  0  0  0
    6.9870   24.8180   21.9810 O   0  0  0  0  0  0  0  0  0  0  0  0
    6.4080   23.1020   23.3170 N   0  0  0  0  0  0  0  0  0  0  0  0
    7.0810   20.1810   17.9630 N   0  0  0  0  0  0  0  0  0  0  0  0
    7.2200   18.9410   17.2250 C   0  0  2  0  0  0  0  0  0  0  0  0
    7.6440   17.8720   18.2000 C   0  0  0  0  0  0  0  0  0  0  0  0
    6.9690   16.8680   18.3800 O   0  0  0  0  0  0  0  0  0  0  0  0
    8.2830   19.0800   16.1350 C   0  0  0  0  0  0  0  0  0  0  0  0
    8.6200   17.7860   15.4620 C   0  0  0  0  0  0  0  0  0  0  0  0
    8.0260   17.2660   14.3540 C   0  0  0  0  0  0  0  0  0  0  0  0
    9.6090   16.8270   15.8730 C   0  0  0  0  0  0  0  0  0  0  0  0
    8.5760   16.0430   14.0500 N   0  0  0  0  0  0  0  0  0  0  0  0
    9.5490   15.7510   14.9660 C   0  0  0  0  0  0  0  0  0  0  0  0
   10.5370   16.7740   16.9220 C   0  0  0  0  0  0  0  0  0  0  0  0
   10.3820   14.6330   15.0750 C   0  0  0  0  0  0  0  0  0  0  0  0
   11.3660   15.6590   17.0310 C   0  0  0  0  0  0  0  0  0  0  0  0
   11.2810   14.6060   16.1100 C   0  0  0  0  0  0  0  0  0  0  0  0
   17.7760   19.4540   19.5880 N   0  0  0  0  0  0  0  0  0  0  0  0
   16.8280   20.5600   19.7140 C   0  0  2  0  0  0  0  0  0  0  0  0
   17.1940   21.4590   20.8990 C   0  0  0  0  0  0  0  0  0  0  0  0
   16.9950   22.6760   20.8520 O   0  0  0  0  0  0  0  0  0  0  0  0
   15.3950   20.0380   19.9050 C   0  0  2  0  0  0  0  0  0  0  0  0
   14.8460   19.5170   18.5790 C   0  0  0  0  0  0  0  0  0  0  0  0
   14.4940   21.1220   20.4700 C   0  0  0  0  0  0  0  0  0  0  0  0
   13.4460   18.9010   18.6870 C   0  0  0  0  0  0  0  0  0  0  0  0
   20.2690   23.5850   19.8520 N   0  0  0  0  0  0  0  0  0  0  0  0
   19.8310   24.5740   18.8880 C   0  0  2  0  0  0  0  0  0  0  0  0
   19.1870   25.7610   19.6000 C   0  0  0  0  0  0  0  0  0  0  0  0
   19.4630   26.9100   19.2540 O   0  0  0  0  0  0  0  0  0  0  0  0
   18.8310   23.9250   17.9280 C   0  0  0  0  0  0  0  0  0  0  0  0
   18.4240   24.7620   16.7290 C   0  0  0  0  0  0  0  0  0  0  0  0
   17.5070   23.9570   15.8130 C   0  0  0  0  0  0  0  0  0  0  0  0
   18.1500   22.7420   15.2990 N   0  0  0  0  0  0  0  0  0  0  0  0
   17.5060   21.6150   14.9950 C   0  0  0  0  0  0  0  0  0  0  0  0
   16.1890   21.5250   15.1570 N   0  0  0  0  0  0  0  0  0  0  0  0
   18.1780   20.5840   14.4900 N   0  0  0  0  0  0  0  0  0  0  0  0
   13.6280   34.2670   16.9900 N   0  0  0  0  0  0  0  0  0  0  0  0
   13.2780   35.0300   15.8050 C   0  0  2  0  0  0  0  0  0  0  0  0
   11.7920   34.8370   15.5660 C   0  0  0  0  0  0  0  0  0  0  0  0
   11.2860   33.7370   15.7400 O   0  0  0  0  0  0  0  0  0  0  0  0
   14.1260   34.6160   14.5820 C   0  0  0  0  0  0  0  0  0  0  0  0
   14.1540   33.2200   14.3290 O   0  0  0  0  0  0  0  0  0  0  0  0
    8.5380   34.5590   13.3410 N   0  0  0  0  0  0  0  0  0  0  0  0
    8.1900   34.1310   11.9970 C   0  0  2  0  0  0  0  0  0  0  0  0
    7.3780   35.1320   11.2080 C   0  0  0  0  0  0  0  0  0  0  0  0
    7.5840   35.2840   10.0030 O   0  0  0  0  0  0  0  0  0  0  0  0
    7.4300   32.8060   12.0650 C   0  0  0  0  0  0  0  0  0  0  0  0
    8.2810   31.6590   12.6120 C   0  0  0  0  0  0  0  0  0  0  0  0
    9.5080   31.8170   12.8450 O   0  0  0  0  0  0  0  0  0  0  0  0
    7.7020   30.5730   12.8060 O   0  0  0  0  0  0  0  0  0  0  0  0
  2  1  1  0
  3  2  1  0
  4  3  2  0
  2  5  1  6
  6  3  1  0
  7  6  1  0
  8  7  1  0
  9  8  2  0
  7 10  1  1
 11 10  1  0
 12  8  1  0
 13 12  1  0
 14 13  1  0
 15 14  2  0
 13 16  1  1
 17 16  1  0
 18 14  1  0
 19 18  1  0
 19 20  1  1
 21 20  2  0
 22 19  1  0
 23 22  1  0
 24 23  1  0
 24 18  1  0
 25 20  1  0
 26 25  1  0
 27 26  1  0
 28 27  2  0
 26 29  1  1
 30 29  1  0
 31 30  1  0
 32 30  1  0
 34 33  1  1
 35 34  1  0
 36 35  2  0
 37 34  1  0
 38 37  1  0
 39 38  1  0
 40 38  2  0
 41 39  2  0
 42 40  1  0
 42 41  1  0
 43 35  1  0
 44 43  1  0
 45 44  1  0
 46 45  2  0
 44 47  1  1
 48 47  1  0
 49 48  2  0
 50 48  1  0
 51 45  1  0
 52 51  1  0
 53 52  1  0
 54 53  2  0
 52 55  1  1
 56 55  1  0
 57 56  1  0
 58 57  2  0
 59 57  1  0
 61 60  1  1
 62 61  1  0
 63 62  2  0
 64 61  1  0
 65 64  1  0
 66 65  2  0
 67 65  1  0
 68 66  1  0
 69 68  1  0
 69 67  2  0
 70 67  1  0
 71 69  1  0
 72 70  2  0
 73 71  2  0
 73 72  1  0
 75 74  1  1
 76 75  1  0
 77 76  2  0
 78 75  1  0
 79 78  1  0
 78 80  1  6
 81 79  1  0
 83 82  1  1
 84 83  1  0
 85 84  2  0
 86 83  1  0
 87 86  1  0
 88 87  1  0
 89 88  1  0
 90 89  1  0
 91 90  1  0
 92 90  2  0
 94 93  1  1
 95 94  1  0
 96 95  2  0
 97 94  1  0
 98 97  1  0
100 99  1  1
101100  1  0
102101  2  0
103100  1  0
104103  1  0
105104  2  0
106104  1  0
M  END
$$$$
