
     RDKit          3D

191188  0  0  0  0  0  0  0  0999 V2000
    2.6200   44.8640  -13.2540 N   0  0  0  0  0  0  0  0  0  0  0  0
    1.3250   44.1850  -13.3900 C   0  0  2  0  0  0  0  0  0  0  0  0
    0.2860   45.0500  -14.1180 C   0  0  0  0  0  0  0  0  0  0  0  0
   -0.7390   44.5440  -14.5780 O   0  0  0  0  0  0  0  0  0  0  0  0
    0.8040   43.7460  -12.0200 C   0  0  0  0  0  0  0  0  0  0  0  0
    1.4730   42.4760  -11.4620 C   0  0  0  0  0  0  0  0  0  0  0  0
    2.8290   42.7230  -10.7770 C   0  0  0  0  0  0  0  0  0  0  0  0
    2.6620   43.4170   -9.4280 C   0  0  0  0  0  0  0  0  0  0  0  0
    1.8390   42.6250   -8.4690 N   0  0  0  0  0  0  0  0  0  0  0  0
    0.5440   46.3590  -14.1720 N   0  0  0  0  0  0  0  0  0  0  0  0
   -0.3180   47.3340  -14.8430 C   0  0  2  0  0  0  0  0  0  0  0  0
   -0.1200   47.2380  -16.3520 C   0  0  0  0  0  0  0  0  0  0  0  0
   -1.0650   47.4120  -17.1240 O   0  0  0  0  0  0  0  0  0  0  0  0
    0.0200   48.7530  -14.3390 C   0  0  0  0  0  0  0  0  0  0  0  0
   -0.7800   49.8910  -14.9690 C   0  0  0  0  0  0  0  0  0  0  0  0
    0.0320   51.1700  -15.1280 C   0  0  0  0  0  0  0  0  0  0  0  0
    0.3150   51.4610  -16.5370 N   0  0  0  0  0  0  0  0  0  0  0  0
    1.0000   52.5140  -16.9810 C   0  0  0  0  0  0  0  0  0  0  0  0
    1.4940   53.4160  -16.1430 N   0  0  0  0  0  0  0  0  0  0  0  0
    1.2360   52.6380  -18.2750 N   0  0  0  0  0  0  0  0  0  0  0  0
    1.1060   46.8950  -16.7480 N   0  0  0  0  0  0  0  0  0  0  0  0
    1.4720   46.7670  -18.1540 C   0  0  2  0  0  0  0  0  0  0  0  0
    0.8010   45.6010  -18.8920 C   0  0  0  0  0  0  0  0  0  0  0  0
    0.6570   45.6320  -20.1180 O   0  0  0  0  0  0  0  0  0  0  0  0
    3.0020   46.6910  -18.3220 C   0  0  0  0  0  0  0  0  0  0  0  0
    3.5860   45.5850  -17.6430 O   0  0  0  0  0  0  0  0  0  0  0  0
   -2.2060   44.8180  -19.2690 N   0  0  0  0  0  0  0  0  0  0  0  0
   -3.6040   45.1880  -19.5230 C   0  0  2  0  0  0  0  0  0  0  0  0
   -3.6960   46.4660  -20.3750 C   0  0  0  0  0  0  0  0  0  0  0  0
   -4.7780   46.8120  -20.8670 O   0  0  0  0  0  0  0  0  0  0  0  0
   -4.3630   45.3810  -18.1950 C   0  0  0  0  0  0  0  0  0  0  0  0
   -3.7700   46.3810  -17.3800 O   0  0  0  0  0  0  0  0  0  0  0  0
   -2.5460   47.1010  -20.6180 N   0  0  0  0  0  0  0  0  0  0  0  0
   -2.4740   48.3370  -21.3960 C   0  0  2  0  0  0  0  0  0  0  0  0
   -2.3220   48.1260  -22.9100 C   0  0  0  0  0  0  0  0  0  0  0  0
   -3.2640   48.3450  -23.6730 O   0  0  0  0  0  0  0  0  0  0  0  0
   -1.3390   49.2030  -20.8920 C   0  0  0  0  0  0  0  0  0  0  0  0
  -12.6100   44.1350  -28.9220 N   0  0  0  0  0  0  0  0  0  0  0  0
  -12.3040   45.2970  -28.0630 C   0  0  2  0  0  0  0  0  0  0  0  0
  -12.8060   46.5830  -28.6820 C   0  0  0  0  0  0  0  0  0  0  0  0
  -13.0240   47.5990  -28.0050 O   0  0  0  0  0  0  0  0  0  0  0  0
  -10.7800   45.4600  -27.9280 C   0  0  0  0  0  0  0  0  0  0  0  0
  -10.1810   44.8250  -26.7200 C   0  0  0  0  0  0  0  0  0  0  0  0
   -9.6870   45.9090  -25.7760 C   0  0  0  0  0  0  0  0  0  0  0  0
  -10.0010   45.5940  -24.3840 N   0  0  0  0  0  0  0  0  0  0  0  0
   -9.1610   45.0200  -23.5260 C   0  0  0  0  0  0  0  0  0  0  0  0
   -7.9360   44.6730  -23.9020 N   0  0  0  0  0  0  0  0  0  0  0  0
   -9.5540   44.7930  -22.2820 N   0  0  0  0  0  0  0  0  0  0  0  0
  -13.0300   46.5130  -29.9880 N   0  0  0  0  0  0  0  0  0  0  0  0
  -13.5000   47.6450  -30.7980 C   0  0  2  0  0  0  0  0  0  0  0  0
  -15.0130   47.5390  -31.1330 C   0  0  0  0  0  0  0  0  0  0  0  0
  -15.6500   48.5500  -31.4260 O   0  0  0  0  0  0  0  0  0  0  0  0
  -12.6510   47.7590  -32.0830 C   0  0  0  0  0  0  0  0  0  0  0  0
  -11.1870   48.0580  -31.7780 C   0  0  0  0  0  0  0  0  0  0  0  0
  -10.9840   49.4670  -31.2050 C   0  0  0  0  0  0  0  0  0  0  0  0
  -11.2840   50.4500  -31.9190 O   0  0  0  0  0  0  0  0  0  0  0  0
  -10.5510   49.5950  -30.0370 O   0  0  0  0  0  0  0  0  0  0  0  0
  -17.7420   48.6130  -27.3530 N   0  0  0  0  0  0  0  0  0  0  0  0
  -17.2770   49.8240  -26.6820 C   0  0  2  0  0  0  0  0  0  0  0  0
  -18.4100   50.7920  -26.3600 C   0  0  0  0  0  0  0  0  0  0  0  0
  -18.9520   50.7360  -25.2540 O   0  0  0  0  0  0  0  0  0  0  0  0
  -16.1640   50.5240  -27.4920 C   0  0  0  0  0  0  0  0  0  0  0  0
  -14.7510   49.9330  -27.3010 C   0  0  0  0  0  0  0  0  0  0  0  0
  -13.7840   50.8960  -26.6020 C   0  0  0  0  0  0  0  0  0  0  0  0
  -12.9260   50.1610  -25.5640 C   0  0  0  0  0  0  0  0  0  0  0  0
  -11.4610   50.2280  -25.8080 N   0  0  0  0  0  0  0  0  0  0  0  0
  -18.8510   51.5840  -27.3410 N   0  0  0  0  0  0  0  0  0  0  0  0
  -19.9070   52.5840  -27.1340 C   0  0  2  0  0  0  0  0  0  0  0  0
  -19.4020   53.5700  -26.0840 C   0  0  0  0  0  0  0  0  0  0  0  0
  -18.8620   54.6180  -26.4370 O   0  0  0  0  0  0  0  0  0  0  0  0
  -21.2520   51.9420  -26.7490 C   0  0  0  0  0  0  0  0  0  0  0  0
  -22.0760   51.0810  -27.7320 C   0  0  0  0  0  0  0  0  0  0  0  0
  -21.4330   49.7090  -27.9130 C   0  0  0  0  0  0  0  0  0  0  0  0
  -23.5000   50.9040  -27.2130 C   0  0  0  0  0  0  0  0  0  0  0  0
  -19.5520   53.2340  -24.8050 N   0  0  0  0  0  0  0  0  0  0  0  0
  -19.0630   54.0750  -23.7140 C   0  0  2  0  0  0  0  0  0  0  0  0
  -17.9850   53.2630  -22.9930 C   0  0  0  0  0  0  0  0  0  0  0  0
  -17.8930   53.2580  -21.7620 O   0  0  0  0  0  0  0  0  0  0  0  0
  -20.2170   54.4710  -22.7850 C   0  0  0  0  0  0  0  0  0  0  0  0
  -20.6140   55.9700  -22.7670 C   0  0  0  0  0  0  0  0  0  0  0  0
  -19.4880   56.8280  -22.2030 C   0  0  0  0  0  0  0  0  0  0  0  0
  -19.9300   58.2640  -21.9760 C   0  0  0  0  0  0  0  0  0  0  0  0
  -20.8070   58.3840  -20.7830 N   0  0  0  0  0  0  0  0  0  0  0  0
  -17.1390   52.6290  -23.8150 N   0  0  0  0  0  0  0  0  0  0  0  0
  -16.0450   51.7210  -23.4310 C   0  0  2  0  0  0  0  0  0  0  0  0
  -16.5020   50.6290  -22.4800 C   0  0  0  0  0  0  0  0  0  0  0  0
  -16.3540   50.7370  -21.2530 O   0  0  0  0  0  0  0  0  0  0  0  0
  -14.7710   52.4470  -22.9980 C   0  0  0  0  0  0  0  0  0  0  0  0
  -14.9020   53.1920  -21.8020 O   0  0  0  0  0  0  0  0  0  0  0  0
  -16.9630   49.5410  -23.1120 N   0  0  0  0  0  0  0  0  0  0  0  0
  -17.5360   48.3380  -22.5090 C   0  0  2  0  0  0  0  0  0  0  0  0
  -18.8950   48.7060  -21.9470 C   0  0  0  0  0  0  0  0  0  0  0  0
  -19.9010   48.1790  -22.4110 O   0  0  0  0  0  0  0  0  0  0  0  0
  -16.6080   47.5430  -21.4900 C   0  0  2  0  0  0  0  0  0  0  0  0
  -16.2350   48.3390  -20.3610 O   0  0  0  0  0  0  0  0  0  0  0  0
  -15.3280   47.0190  -22.1830 C   0  0  0  0  0  0  0  0  0  0  0  0
  -18.9390   49.7500  -21.1200 N   0  0  0  0  0  0  0  0  0  0  0  0
  -20.1810   50.2300  -20.5090 C   0  0  2  0  0  0  0  0  0  0  0  0
  -21.1580   50.8930  -21.5180 C   0  0  0  0  0  0  0  0  0  0  0  0
  -20.7750   51.2020  -22.6450 O   0  0  0  0  0  0  0  0  0  0  0  0
  -19.8640   51.2630  -19.4020 C   0  0  0  0  0  0  0  0  0  0  0  0
  -19.0230   50.7390  -18.2640 C   0  0  0  0  0  0  0  0  0  0  0  0
  -19.6170   50.1420  -17.1530 C   0  0  0  0  0  0  0  0  0  0  0  0
  -17.6320   50.8400  -18.2910 C   0  0  0  0  0  0  0  0  0  0  0  0
  -18.8440   49.6300  -16.1040 C   0  0  0  0  0  0  0  0  0  0  0  0
  -16.8440   50.3320  -17.2390 C   0  0  0  0  0  0  0  0  0  0  0  0
  -17.4590   49.7330  -16.1470 C   0  0  0  0  0  0  0  0  0  0  0  0
  -16.6840   49.1880  -15.1450 O   0  0  0  0  0  0  0  0  0  0  0  0
  -23.8970   53.8520  -20.9010 N   0  0  0  0  0  0  0  0  0  0  0  0
  -24.5680   54.7920  -20.0150 C   0  0  2  0  0  0  0  0  0  0  0  0
  -26.0120   54.9640  -20.4830 C   0  0  0  0  0  0  0  0  0  0  0  0
  -26.2460   55.4910  -21.5670 O   0  0  0  0  0  0  0  0  0  0  0  0
  -23.8500   56.1590  -20.0120 C   0  0  0  0  0  0  0  0  0  0  0  0
  -22.5210   56.1440  -19.2390 C   0  0  0  0  0  0  0  0  0  0  0  0
  -21.6550   55.2780  -19.5170 O   0  0  0  0  0  0  0  0  0  0  0  0
  -22.3210   57.0350  -18.3830 O   0  0  0  0  0  0  0  0  0  0  0  0
  -16.4950   67.9620  -24.1760 N   0  0  0  0  0  0  0  0  0  0  0  0
  -17.7290   67.5810  -23.5010 C   0  0  2  0  0  0  0  0  0  0  0  0
  -17.5060   66.6180  -22.3360 C   0  0  0  0  0  0  0  0  0  0  0  0
  -16.4100   66.0780  -22.1620 O   0  0  0  0  0  0  0  0  0  0  0  0
  -18.7120   66.9770  -24.5100 C   0  0  0  0  0  0  0  0  0  0  0  0
  -18.0740   66.0320  -25.3530 O   0  0  0  0  0  0  0  0  0  0  0  0
  -18.5490   66.4440  -21.5230 N   0  0  0  0  0  0  0  0  0  0  0  0
  -18.5440   65.5480  -20.3610 C   0  0  2  0  0  0  0  0  0  0  0  0
  -19.9930   65.2380  -19.9500 C   0  0  0  0  0  0  0  0  0  0  0  0
  -20.8240   66.1500  -19.8490 O   0  0  0  0  0  0  0  0  0  0  0  0
  -17.7470   66.1690  -19.1970 C   0  0  0  0  0  0  0  0  0  0  0  0
  -18.1970   67.4740  -18.8620 O   0  0  0  0  0  0  0  0  0  0  0  0
  -20.2810   63.9430  -19.7520 N   0  0  0  0  0  0  0  0  0  0  0  0
  -21.6040   63.4100  -19.3680 C   0  0  2  0  0  0  0  0  0  0  0  0
  -22.6800   63.7270  -20.4060 C   0  0  0  0  0  0  0  0  0  0  0  0
  -23.5890   64.5190  -20.1600 O   0  0  0  0  0  0  0  0  0  0  0  0
  -22.0140   63.9160  -17.9610 C   0  0  0  0  0  0  0  0  0  0  0  0
  -23.1410   63.0800  -17.3260 C   0  0  0  0  0  0  0  0  0  0  0  0
  -22.8470   61.9920  -16.7840 O   0  0  0  0  0  0  0  0  0  0  0  0
  -24.3130   63.5150  -17.3600 O   0  0  0  0  0  0  0  0  0  0  0  0
  -22.5650   63.1440  -21.6410 N   0  0  0  0  0  0  0  0  0  0  0  0
  -21.5510   62.2030  -22.1470 C   0  0  2  0  0  0  0  0  0  0  0  0
  -20.4440   62.9220  -22.9330 C   0  0  0  0  0  0  0  0  0  0  0  0
  -20.6350   64.0410  -23.4010 O   0  0  0  0  0  0  0  0  0  0  0  0
  -22.3880   61.2700  -23.0360 C   0  0  0  0  0  0  0  0  0  0  0  0
  -23.4880   62.1540  -23.5310 C   0  0  0  0  0  0  0  0  0  0  0  0
  -23.8580   62.9630  -22.2990 C   0  0  0  0  0  0  0  0  0  0  0  0
  -19.2580   62.3120  -22.9800 N   0  0  0  0  0  0  0  0  0  0  0  0
  -18.1090   62.8910  -23.6820 C   0  0  2  0  0  0  0  0  0  0  0  0
  -18.2280   62.5420  -25.1580 C   0  0  0  0  0  0  0  0  0  0  0  0
  -17.7310   61.5110  -25.6040 O   0  0  0  0  0  0  0  0  0  0  0  0
  -16.7880   62.3660  -23.0900 C   0  0  0  0  0  0  0  0  0  0  0  0
  -15.5710   63.2070  -23.5020 C   0  0  0  0  0  0  0  0  0  0  0  0
  -15.6950   64.1860  -24.2370 O   0  0  0  0  0  0  0  0  0  0  0  0
  -14.3920   62.8300  -23.0080 N   0  0  0  0  0  0  0  0  0  0  0  0
  -18.9360   63.3970  -25.8940 N   0  0  0  0  0  0  0  0  0  0  0  0
  -19.1740   63.2150  -27.3250 C   0  0  2  0  0  0  0  0  0  0  0  0
  -18.0270   63.7390  -28.2160 C   0  0  0  0  0  0  0  0  0  0  0  0
  -18.1420   63.7510  -29.4450 O   0  0  0  0  0  0  0  0  0  0  0  0
  -20.5060   63.8820  -27.7210 C   0  0  0  0  0  0  0  0  0  0  0  0
  -21.8280   63.4470  -27.0590 C   0  0  0  0  0  0  0  0  0  0  0  0
  -22.9690   64.3690  -27.4790 C   0  0  0  0  0  0  0  0  0  0  0  0
  -22.1670   62.0050  -27.4130 C   0  0  0  0  0  0  0  0  0  0  0  0
  -16.9120   64.1310  -27.5960 N   0  0  0  0  0  0  0  0  0  0  0  0
  -15.7420   64.6600  -28.3130 C   0  0  2  0  0  0  0  0  0  0  0  0
  -15.0010   63.5830  -29.1230 C   0  0  0  0  0  0  0  0  0  0  0  0
  -14.5010   63.8660  -30.2110 O   0  0  0  0  0  0  0  0  0  0  0  0
  -14.7860   65.3410  -27.3180 C   0  0  0  0  0  0  0  0  0  0  0  0
  -13.5590   66.0460  -27.9190 C   0  0  0  0  0  0  0  0  0  0  0  0
  -13.9130   67.1830  -28.8670 C   0  0  0  0  0  0  0  0  0  0  0  0
  -13.8070   67.0400  -30.0850 O   0  0  0  0  0  0  0  0  0  0  0  0
  -14.3020   68.3280  -28.3120 N   0  0  0  0  0  0  0  0  0  0  0  0
  -14.9430   62.3570  -28.6040 N   0  0  0  0  0  0  0  0  0  0  0  0
  -14.2710   61.2670  -29.3030 C   0  0  2  0  0  0  0  0  0  0  0  0
  -15.2290   60.1090  -29.6390 C   0  0  0  0  0  0  0  0  0  0  0  0
  -15.3940   59.1790  -28.8470 O   0  0  0  0  0  0  0  0  0  0  0  0
  -13.0690   60.7650  -28.4630 C   0  0  0  0  0  0  0  0  0  0  0  0
  -11.9740   61.8200  -28.2930 C   0  0  0  0  0  0  0  0  0  0  0  0
  -11.4560   62.3640  -29.2750 O   0  0  0  0  0  0  0  0  0  0  0  0
  -11.5990   62.0870  -27.0480 N   0  0  0  0  0  0  0  0  0  0  0  0
  -15.9040   60.2210  -30.7910 N   0  0  0  0  0  0  0  0  0  0  0  0
  -16.8470   59.2090  -31.2860 C   0  0  2  0  0  0  0  0  0  0  0  0
  -16.2590   58.6130  -32.5610 C   0  0  0  0  0  0  0  0  0  0  0  0
  -15.7440   59.3540  -33.3980 O   0  0  0  0  0  0  0  0  0  0  0  0
  -18.2530   59.8230  -31.6340 C   0  0  2  0  0  0  0  0  0  0  0  0
  -18.9240   60.4530  -30.4030 C   0  0  0  0  0  0  0  0  0  0  0  0
  -19.1740   58.7420  -32.2140 C   0  0  0  0  0  0  0  0  0  0  0  0
  -20.1990   61.2320  -30.7470 C   0  0  0  0  0  0  0  0  0  0  0  0
  -16.3430   57.2860  -32.7380 N   0  0  0  0  0  0  0  0  0  0  0  0
  -15.7890   56.7010  -33.9630 C   0  0  2  0  0  0  0  0  0  0  0  0
  -16.6320   57.0080  -35.1890 C   0  0  0  0  0  0  0  0  0  0  0  0
  -17.7560   56.5550  -35.2930 O   0  0  0  0  0  0  0  0  0  0  0  0
  -15.7100   55.2010  -33.6320 C   0  0  0  0  0  0  0  0  0  0  0  0
  -16.6760   55.0190  -32.4590 C   0  0  0  0  0  0  0  0  0  0  0  0
  -16.3930   56.2670  -31.6710 C   0  0  0  0  0  0  0  0  0  0  0  0
  2  1  1  1
  3  2  1  0
  4  3  2  0
  5  2  1  0
  6  5  1  0
  7  6  1  0
  8  7  1  0
  9  8  1  0
 10  3  1  0
 11 10  1  0
 12 11  1  0
 13 12  2  0
 11 14  1  1
 15 14  1  0
 16 15  1  0
 17 16  1  0
 18 17  1  0
 19 18  1  0
 20 18  2  0
 21 12  1  0
 22 21  1  0
 23 22  1  0
 24 23  2  0
 22 25  1  1
 26 25  1  0
 28 27  1  1
 29 28  1  0
 30 29  2  0
 31 28  1  0
 32 31  1  0
 33 29  1  0
 34 33  1  0
 35 34  1  0
 36 35  2  0
 34 37  1  1
 39 38  1  6
 40 39  1  0
 41 40  2  0
 42 39  1  0
 43 42  1  0
 44 43  1  0
 45 44  1  0
 46 45  1  0
 47 46  1  0
 48 46  2  0
 49 40  1  0
 50 49  1  0
 51 50  1  0
 52 51  2  0
 50 53  1  6
 54 53  1  0
 55 54  1  0
 56 55  2  0
 57 55  1  0
 59 58  1  6
 60 59  1  0
 61 60  2  0
 62 59  1  0
 63 62  1  0
 64 63  1  0
 65 64  1  0
 66 65  1  0
 67 60  1  0
 68 67  1  0
 69 68  1  0
 70 69  2  0
 68 71  1  1
 72 71  1  0
 73 72  1  0
 74 72  1  0
 75 69  1  0
 76 75  1  0
 77 76  1  0
 78 77  2  0
 76 79  1  1
 80 79  1  0
 81 80  1  0
 82 81  1  0
 83 82  1  0
 84 77  1  0
 85 84  1  0
 86 85  1  0
 87 86  2  0
 85 88  1  1
 89 88  1  0
 90 86  1  0
 91 90  1  1
 92 91  1  0
 93 92  2  0
 94 91  1  0
 95 94  1  0
 94 96  1  6
 97 92  1  0
 98 97  1  0
 99 98  1  0
100 99  2  0
 98101  1  1
102101  1  0
103102  2  0
104102  1  0
105103  1  0
106104  2  0
107106  1  0
107105  2  0
108107  1  0
110109  1  6
111110  1  0
112111  2  0
113110  1  0
114113  1  0
115114  2  0
116114  1  0
118117  1  6
119118  1  0
120119  2  0
121118  1  0
122121  1  0
123119  1  0
124123  1  0
125124  1  0
126125  2  0
124127  1  1
128127  1  0
129125  1  0
130129  1  0
131130  1  0
132131  2  0
130133  1  1
134133  1  0
135134  2  0
136134  1  0
137131  1  0
138137  1  0
138139  1  6
140139  2  0
141138  1  0
142141  1  0
143142  1  0
143137  1  0
144139  1  0
145144  1  0
146145  1  0
147146  2  0
145148  1  1
149148  1  0
150149  2  0
151149  1  0
152146  1  0
153152  1  0
154153  1  0
155154  2  0
153156  1  6
157156  1  0
158157  1  0
159157  1  0
160154  1  0
161160  1  0
162161  1  0
163162  2  0
161164  1  1
165164  1  0
166165  1  0
167166  2  0
168166  1  0
169162  1  0
170169  1  0
171170  1  0
172171  2  0
170173  1  1
174173  1  0
175174  2  0
176174  1  0
177171  1  0
178177  1  6
179178  1  0
180179  2  0
181178  1  0
182181  1  0
181183  1  1
184182  1  0
185179  1  0
186185  1  0
186187  1  6
188187  2  0
189186  1  0
190189  1  0
191190  1  0
191185  1  0
M  END
$$$$
