
     RDKit          3D

 93 92  0  0  0  0  0  0  0  0999 V2000
   20.9600   71.2540   31.0020 N   0  0  0  0  0  0  0  0  0  0  0  0
   21.8870   70.1600   31.3340 C   0  0  2  0  0  0  0  0  0  0  0  0
   21.8490   69.7540   32.8080 C   0  0  0  0  0  0  0  0  0  0  0  0
   21.4760   70.5480   33.6680 O   0  0  0  0  0  0  0  0  0  0  0  0
   23.3420   70.5650   30.9890 C   0  0  2  0  0  0  0  0  0  0  0  0
   23.4160   71.0600   29.5420 C   0  0  0  0  0  0  0  0  0  0  0  0
   24.2810   69.3980   31.1850 C   0  0  0  0  0  0  0  0  0  0  0  0
   22.9890   70.0420   28.5150 C   0  0  0  0  0  0  0  0  0  0  0  0
   22.2420   68.5150   33.0980 N   0  0  0  0  0  0  0  0  0  0  0  0
   22.2510   68.0530   34.4760 C   0  0  0  0  0  0  0  0  0  0  0  0
   21.5330   66.7400   34.7200 C   0  0  0  0  0  0  0  0  0  0  0  0
   20.8870   66.2100   33.8250 O   0  0  0  0  0  0  0  0  0  0  0  0
   21.6280   66.1880   35.9400 N   0  0  0  0  0  0  0  0  0  0  0  0
   20.9750   64.9220   36.2890 C   0  0  2  0  0  0  0  0  0  0  0  0
   19.4800   64.8360   35.9920 C   0  0  0  0  0  0  0  0  0  0  0  0
   18.7100   65.7180   36.3540 O   0  0  0  0  0  0  0  0  0  0  0  0
   21.2890   64.7610   37.7850 C   0  0  0  0  0  0  0  0  0  0  0  0
   21.6190   66.1550   38.2430 C   0  0  0  0  0  0  0  0  0  0  0  0
   22.3850   66.7190   37.0840 C   0  0  0  0  0  0  0  0  0  0  0  0
   19.0890   63.7550   35.3250 N   0  0  0  0  0  0  0  0  0  0  0  0
   17.6980   63.5010   34.9660 C   0  0  2  0  0  0  0  0  0  0  0  0
   17.1330   64.5110   33.9630 C   0  0  0  0  0  0  0  0  0  0  0  0
   15.9190   64.5630   33.7450 O   0  0  0  0  0  0  0  0  0  0  0  0
   16.8140   63.4960   36.2150 C   0  0  0  0  0  0  0  0  0  0  0  0
   17.2380   62.5310   37.3220 C   0  0  0  0  0  0  0  0  0  0  0  0
   17.3620   61.0820   36.8700 C   0  0  0  0  0  0  0  0  0  0  0  0
   17.6390   60.2230   38.0230 N   0  0  0  0  0  0  0  0  0  0  0  0
   18.3380   59.0910   37.9770 C   0  0  0  0  0  0  0  0  0  0  0  0
   18.8390   58.6600   36.8230 N   0  0  0  0  0  0  0  0  0  0  0  0
   18.5590   58.4010   39.0940 N   0  0  0  0  0  0  0  0  0  0  0  0
   18.6840   67.1240   30.4130 N   0  0  0  0  0  0  0  0  0  0  0  0
   19.2420   67.0070   29.0800 C   0  0  2  0  0  0  0  0  0  0  0  0
   20.7240   66.6630   29.0720 C   0  0  0  0  0  0  0  0  0  0  0  0
   21.5080   67.2440   29.8210 O   0  0  0  0  0  0  0  0  0  0  0  0
   19.0110   68.3120   28.2890 C   0  0  2  0  0  0  0  0  0  0  0  0
   17.6020   68.5210   28.1350 O   0  0  0  0  0  0  0  0  0  0  0  0
   19.6480   68.2400   26.9240 C   0  0  0  0  0  0  0  0  0  0  0  0
   21.0880   65.6930   28.2370 N   0  0  0  0  0  0  0  0  0  0  0  0
   22.4770   65.2790   28.0770 C   0  0  2  0  0  0  0  0  0  0  0  0
   22.7700   65.5890   26.6220 C   0  0  0  0  0  0  0  0  0  0  0  0
   22.0010   65.2050   25.7540 O   0  0  0  0  0  0  0  0  0  0  0  0
   22.6460   63.7760   28.3260 C   0  0  0  0  0  0  0  0  0  0  0  0
   24.0970   63.3330   28.3530 C   0  0  0  0  0  0  0  0  0  0  0  0
   24.2710   61.8230   28.5280 C   0  0  0  0  0  0  0  0  0  0  0  0
   25.3650   61.3580   28.8340 O   0  0  0  0  0  0  0  0  0  0  0  0
   23.1990   61.0580   28.3190 N   0  0  0  0  0  0  0  0  0  0  0  0
   27.9740   61.3470   28.6390 N   0  0  0  0  0  0  0  0  0  0  0  0
   28.5480   61.2130   29.9660 C   0  0  2  0  0  0  0  0  0  0  0  0
   29.6600   62.1380   30.4550 C   0  0  0  0  0  0  0  0  0  0  0  0
   30.0610   62.0030   31.5940 O   0  0  0  0  0  0  0  0  0  0  0  0
   29.0140   59.7590   30.1580 C   0  0  0  0  0  0  0  0  0  0  0  0
   27.9630   58.7270   29.7270 C   0  0  0  0  0  0  0  0  0  0  0  0
   28.2740   57.5450   29.5990 O   0  0  0  0  0  0  0  0  0  0  0  0
   26.7290   59.1710   29.5040 N   0  0  0  0  0  0  0  0  0  0  0  0
   30.1810   63.0470   29.6350 N   0  0  0  0  0  0  0  0  0  0  0  0
   31.2440   63.9240   30.1380 C   0  0  2  0  0  0  0  0  0  0  0  0
   30.7130   64.7270   31.3170 C   0  0  0  0  0  0  0  0  0  0  0  0
   29.4950   64.9300   31.4370 O   0  0  0  0  0  0  0  0  0  0  0  0
   31.7690   64.9050   29.0540 C   0  0  0  0  0  0  0  0  0  0  0  0
   32.3160   64.1320   27.8850 C   0  0  0  0  0  0  0  0  0  0  0  0
   30.6740   65.8580   28.6120 C   0  0  0  0  0  0  0  0  0  0  0  0
   31.6120   65.1690   32.1990 N   0  0  0  0  0  0  0  0  0  0  0  0
   31.1880   65.9580   33.3520 C   0  0  2  0  0  0  0  0  0  0  0  0
   30.1750   66.9730   32.8290 C   0  0  0  0  0  0  0  0  0  0  0  0
   30.4960   67.7770   31.9490 O   0  0  0  0  0  0  0  0  0  0  0  0
   32.3570   66.7210   33.9930 C   0  0  0  0  0  0  0  0  0  0  0  0
   31.8190   67.6350   35.0770 C   0  0  0  0  0  0  0  0  0  0  0  0
   33.3790   65.7450   34.5640 C   0  0  0  0  0  0  0  0  0  0  0  0
   28.9380   66.9410   33.3590 N   0  0  0  0  0  0  0  0  0  0  0  0
   27.8640   67.8430   32.9420 C   0  0  2  0  0  0  0  0  0  0  0  0
   27.9570   69.3060   33.3890 C   0  0  0  0  0  0  0  0  0  0  0  0
   27.0470   69.8370   34.0170 O   0  0  0  0  0  0  0  0  0  0  0  0
   26.6150   67.1410   33.4700 C   0  0  0  0  0  0  0  0  0  0  0  0
   27.1030   66.5600   34.7760 C   0  0  0  0  0  0  0  0  0  0  0  0
   28.4690   66.0090   34.4080 C   0  0  0  0  0  0  0  0  0  0  0  0
   20.8620   57.0440   27.5000 N   0  0  0  0  0  0  0  0  0  0  0  0
   20.0200   56.5860   28.6000 C   0  0  2  0  0  0  0  0  0  0  0  0
   18.7780   55.8090   28.1740 C   0  0  0  0  0  0  0  0  0  0  0  0
   18.0240   56.2340   27.3000 O   0  0  0  0  0  0  0  0  0  0  0  0
   19.5860   57.7710   29.4560 C   0  0  0  0  0  0  0  0  0  0  0  0
   20.6900   58.3440   30.3100 C   0  0  0  0  0  0  0  0  0  0  0  0
   20.2520   59.6560   30.9270 C   0  0  0  0  0  0  0  0  0  0  0  0
   20.0380   60.6610   29.8950 N   0  0  0  0  0  0  0  0  0  0  0  0
   19.6230   61.8970   30.1420 C   0  0  0  0  0  0  0  0  0  0  0  0
   19.3840   62.2700   31.3960 N   0  0  0  0  0  0  0  0  0  0  0  0
   19.4340   62.7550   29.1360 N   0  0  0  0  0  0  0  0  0  0  0  0
   18.5500   54.6460   28.7910 N   0  0  0  0  0  0  0  0  0  0  0  0
   17.3590   53.8880   28.4070 C   0  0  2  0  0  0  0  0  0  0  0  0
   16.1350   54.6890   28.8370 C   0  0  0  0  0  0  0  0  0  0  0  0
   16.1620   55.3520   29.8810 O   0  0  0  0  0  0  0  0  0  0  0  0
   17.5160   52.5870   29.1930 C   0  0  0  0  0  0  0  0  0  0  0  0
   18.2430   53.0470   30.4520 C   0  0  0  0  0  0  0  0  0  0  0  0
   19.2980   53.9720   29.8700 C   0  0  0  0  0  0  0  0  0  0  0  0
  2  1  1  1
  3  2  1  0
  4  3  2  0
  5  2  1  0
  6  5  1  0
  5  7  1  6
  8  6  1  0
  9  3  1  0
 10  9  1  0
 11 10  1  0
 12 11  2  0
 13 11  1  0
 14 13  1  0
 14 15  1  1
 16 15  2  0
 17 14  1  0
 18 17  1  0
 19 13  1  0
 19 18  1  0
 20 15  1  0
 21 20  1  0
 22 21  1  0
 23 22  2  0
 21 24  1  1
 25 24  1  0
 26 25  1  0
 27 26  1  0
 28 27  1  0
 29 28  1  0
 30 28  2  0
 32 31  1  1
 33 32  1  0
 34 33  2  0
 35 32  1  0
 36 35  1  0
 35 37  1  6
 38 33  1  0
 39 38  1  0
 40 39  1  0
 41 40  2  0
 39 42  1  6
 43 42  1  0
 44 43  1  0
 45 44  2  0
 46 44  1  0
 48 47  1  6
 49 48  1  0
 50 49  2  0
 51 48  1  0
 52 51  1  0
 53 52  2  0
 54 52  1  0
 55 49  1  0
 56 55  1  6
 57 56  1  0
 58 57  2  0
 59 56  1  0
 60 59  1  0
 61 59  1  0
 62 57  1  0
 63 62  1  6
 64 63  1  0
 65 64  2  0
 66 63  1  0
 67 66  1  0
 68 66  1  0
 69 64  1  0
 70 69  1  0
 70 71  1  1
 72 71  2  0
 73 70  1  0
 74 73  1  0
 75 74  1  0
 75 69  1  0
 77 76  1  6
 78 77  1  0
 79 78  2  0
 80 77  1  0
 81 80  1  0
 82 81  1  0
 83 82  1  0
 84 83  1  0
 85 84  1  0
 86 84  2  0
 87 78  1  0
 88 87  1  0
 88 89  1  1
 90 89  2  0
 91 88  1  0
 92 91  1  0
 93 92  1  0
 93 87  1  0
M  END
$$$$
