
     RDKit          3D

 98 97  0  0  0  0  0  0  0  0999 V2000
   59.8730   14.5420   22.1440 N   0  0  0  0  0  0  0  0  0  0  0  0
   60.9270   15.2340   21.4180 C   0  0  2  0  0  0  0  0  0  0  0  0
   60.3220   16.2990   20.5100 C   0  0  0  0  0  0  0  0  0  0  0  0
   60.9160   17.3730   20.3070 O   0  0  0  0  0  0  0  0  0  0  0  0
   61.7570   14.2490   20.6020 C   0  0  0  0  0  0  0  0  0  0  0  0
   62.5670   13.2990   21.4510 C   0  0  0  0  0  0  0  0  0  0  0  0
   63.5860   12.2190   20.4370 S   0  0  0  0  0  0  0  0  0  0  0  0
   65.1090   12.1010   21.4270 C   0  0  0  0  0  0  0  0  0  0  0  0
   59.1360   16.0130   19.9770 N   0  0  0  0  0  0  0  0  0  0  0  0
   58.4660   16.9710   19.1070 C   0  0  2  0  0  0  0  0  0  0  0  0
   58.0560   18.1800   19.9290 C   0  0  0  0  0  0  0  0  0  0  0  0
   58.2170   19.3210   19.4840 O   0  0  0  0  0  0  0  0  0  0  0  0
   57.2380   16.3480   18.4270 C   0  0  0  0  0  0  0  0  0  0  0  0
   56.5020   17.3160   17.4870 C   0  0  0  0  0  0  0  0  0  0  0  0
   55.6290   16.5530   16.4880 C   0  0  0  0  0  0  0  0  0  0  0  0
   55.1700   17.4450   15.3410 C   0  0  0  0  0  0  0  0  0  0  0  0
   54.5090   16.6660   14.2580 N   0  0  0  0  0  0  0  0  0  0  0  0
   57.5360   17.9450   21.1290 N   0  0  0  0  0  0  0  0  0  0  0  0
   57.1550   19.0590   21.9830 C   0  0  2  0  0  0  0  0  0  0  0  0
   58.3980   19.8510   22.3610 C   0  0  0  0  0  0  0  0  0  0  0  0
   58.3200   21.0640   22.5530 O   0  0  0  0  0  0  0  0  0  0  0  0
   56.4640   18.5810   23.2600 C   0  0  0  0  0  0  0  0  0  0  0  0
   55.2080   17.7850   23.0120 C   0  0  0  0  0  0  0  0  0  0  0  0
   54.4290   17.5180   24.2960 C   0  0  0  0  0  0  0  0  0  0  0  0
   53.6250   16.3030   24.1660 N   0  0  0  0  0  0  0  0  0  0  0  0
   54.0390   15.0930   24.5360 C   0  0  0  0  0  0  0  0  0  0  0  0
   55.2440   14.9340   25.0710 N   0  0  0  0  0  0  0  0  0  0  0  0
   53.2570   14.0360   24.3480 N   0  0  0  0  0  0  0  0  0  0  0  0
   59.5410   19.1660   22.4610 N   0  0  0  0  0  0  0  0  0  0  0  0
   60.7790   19.8260   22.8290 C   0  0  2  0  0  0  0  0  0  0  0  0
   61.5600   20.4160   21.6610 C   0  0  0  0  0  0  0  0  0  0  0  0
   62.7320   20.7490   21.8100 O   0  0  0  0  0  0  0  0  0  0  0  0
   61.6750   18.8930   23.6570 C   0  0  0  0  0  0  0  0  0  0  0  0
   61.2390   18.7580   25.0830 C   0  0  0  0  0  0  0  0  0  0  0  0
   60.1360   18.0240   25.4650 N   0  0  0  0  0  0  0  0  0  0  0  0
   61.7220   19.3210   26.2160 C   0  0  0  0  0  0  0  0  0  0  0  0
   59.9550   18.1400   26.7690 C   0  0  0  0  0  0  0  0  0  0  0  0
   60.9050   18.9230   27.2500 N   0  0  0  0  0  0  0  0  0  0  0  0
   60.9030   20.5390   20.5060 N   0  0  0  0  0  0  0  0  0  0  0  0
   61.5220   21.1550   19.3390 C   0  0  0  0  0  0  0  0  0  0  0  0
   62.5190   20.4620   18.4280 C   0  0  0  0  0  0  0  0  0  0  0  0
   63.1940   21.1390   17.6450 O   0  0  0  0  0  0  0  0  0  0  0  0
   62.6040   19.1340   18.4800 N   0  0  0  0  0  0  0  0  0  0  0  0
   63.5630   18.4230   17.6380 C   0  0  2  0  0  0  0  0  0  0  0  0
   63.0510   18.0410   16.2610 C   0  0  0  0  0  0  0  0  0  0  0  0
   63.8110   17.5360   15.4360 O   0  0  0  0  0  0  0  0  0  0  0  0
   64.0710   17.1660   18.3480 C   0  0  0  0  0  0  0  0  0  0  0  0
   64.8610   17.4330   19.6270 C   0  0  0  0  0  0  0  0  0  0  0  0
   65.2680   16.1080   20.2760 C   0  0  0  0  0  0  0  0  0  0  0  0
   66.0900   18.2550   19.2800 C   0  0  0  0  0  0  0  0  0  0  0  0
   61.7700   18.2630   16.0060 N   0  0  0  0  0  0  0  0  0  0  0  0
   61.2480   17.9450   14.6900 C   0  0  2  0  0  0  0  0  0  0  0  0
   61.6810   19.0560   13.7390 C   0  0  0  0  0  0  0  0  0  0  0  0
   61.1510   20.1590   13.7960 O   0  0  0  0  0  0  0  0  0  0  0  0
   59.7250   17.8790   14.6950 C   0  0  0  0  0  0  0  0  0  0  0  0
   59.1730   17.3460   13.3840 C   0  0  0  0  0  0  0  0  0  0  0  0
   57.9460   17.4100   13.1790 O   0  0  0  0  0  0  0  0  0  0  0  0
   59.9800   16.8530   12.5620 O   0  0  0  0  0  0  0  0  0  0  0  0
   62.6470   18.7660   12.8770 N   0  0  0  0  0  0  0  0  0  0  0  0
   63.1220   19.7450   11.9100 C   0  0  2  0  0  0  0  0  0  0  0  0
   63.9800   20.8390   12.5410 C   0  0  0  0  0  0  0  0  0  0  0  0
   63.9670   21.9880   12.0980 O   0  0  0  0  0  0  0  0  0  0  0  0
   61.9370   20.3670   11.1520 C   0  0  0  0  0  0  0  0  0  0  0  0
   62.3780   21.2160    9.9680 C   0  0  0  0  0  0  0  0  0  0  0  0
   63.2160   20.7920    9.1660 O   0  0  0  0  0  0  0  0  0  0  0  0
   61.8050   22.4200    9.8440 N   0  0  0  0  0  0  0  0  0  0  0  0
   64.7190   20.4800   13.5830 N   0  0  0  0  0  0  0  0  0  0  0  0
   65.6140   21.4290   14.2310 C   0  0  2  0  0  0  0  0  0  0  0  0
   66.8920   21.4070   13.3950 C   0  0  0  0  0  0  0  0  0  0  0  0
   67.4480   20.3360   13.1350 O   0  0  0  0  0  0  0  0  0  0  0  0
   65.9300   20.9770   15.6540 C   0  0  0  0  0  0  0  0  0  0  0  0
   66.8760   21.9080   16.3810 C   0  0  0  0  0  0  0  0  0  0  0  0
   66.4130   23.0790   16.9850 C   0  0  0  0  0  0  0  0  0  0  0  0
   68.2300   21.6120   16.4710 C   0  0  0  0  0  0  0  0  0  0  0  0
   67.2900   23.9330   17.6710 C   0  0  0  0  0  0  0  0  0  0  0  0
   69.1120   22.4490   17.1430 C   0  0  0  0  0  0  0  0  0  0  0  0
   68.6400   23.6090   17.7450 C   0  0  0  0  0  0  0  0  0  0  0  0
   69.5220   24.4180   18.4270 O   0  0  0  0  0  0  0  0  0  0  0  0
   67.5070   17.4920   25.9090 N   0  0  0  0  0  0  0  0  0  0  0  0
   67.2280   18.0910   24.6080 C   0  0  2  0  0  0  0  0  0  0  0  0
   67.9370   19.4480   24.4630 C   0  0  0  0  0  0  0  0  0  0  0  0
   68.5290   19.7320   23.4150 O   0  0  0  0  0  0  0  0  0  0  0  0
   65.7200   18.2590   24.3650 C   0  0  0  0  0  0  0  0  0  0  0  0
   65.4930   19.0330   23.0690 C   0  0  0  0  0  0  0  0  0  0  0  0
   65.0490   16.8790   24.2680 C   0  0  0  0  0  0  0  0  0  0  0  0
   67.8940   20.2780   25.5060 N   0  0  0  0  0  0  0  0  0  0  0  0
   68.5640   21.5850   25.4240 C   0  0  2  0  0  0  0  0  0  0  0  0
   70.0230   21.3680   25.0510 C   0  0  0  0  0  0  0  0  0  0  0  0
   70.5840   22.0660   24.1940 O   0  0  0  0  0  0  0  0  0  0  0  0
   68.5250   22.3370   26.7650 C   0  0  0  0  0  0  0  0  0  0  0  0
   67.1380   22.8670   27.1330 C   0  0  0  0  0  0  0  0  0  0  0  0
   66.9500   23.3890   28.2410 O   0  0  0  0  0  0  0  0  0  0  0  0
   66.1740   22.7470   26.2260 N   0  0  0  0  0  0  0  0  0  0  0  0
   70.4590   20.1120   21.4800 N   0  0  0  0  0  0  0  0  0  0  0  0
   70.2110   21.2040   20.5500 C   0  0  2  0  0  0  0  0  0  0  0  0
   71.4520   22.0850   20.3790 C   0  0  0  0  0  0  0  0  0  0  0  0
   71.6410   22.7020   19.3300 O   0  0  0  0  0  0  0  0  0  0  0  0
   68.9980   22.0300   21.0260 C   0  0  0  0  0  0  0  0  0  0  0  0
  2  1  1  6
  3  2  1  0
  4  3  2  0
  5  2  1  0
  6  5  1  0
  7  6  1  0
  8  7  1  0
  9  3  1  0
 10  9  1  0
 11 10  1  0
 12 11  2  0
 10 13  1  1
 14 13  1  0
 15 14  1  0
 16 15  1  0
 17 16  1  0
 18 11  1  0
 19 18  1  0
 20 19  1  0
 21 20  2  0
 19 22  1  1
 23 22  1  0
 24 23  1  0
 25 24  1  0
 26 25  1  0
 27 26  1  0
 28 26  2  0
 29 20  1  0
 30 29  1  0
 31 30  1  0
 32 31  2  0
 30 33  1  6
 34 33  1  0
 35 34  1  0
 36 34  2  0
 37 35  2  0
 38 37  1  0
 38 36  1  0
 39 31  1  0
 40 39  1  0
 41 40  1  0
 42 41  2  0
 43 41  1  0
 44 43  1  0
 45 44  1  0
 46 45  2  0
 44 47  1  1
 48 47  1  0
 49 48  1  0
 50 48  1  0
 51 45  1  0
 52 51  1  0
 53 52  1  0
 54 53  2  0
 52 55  1  1
 56 55  1  0
 57 56  2  0
 58 56  1  0
 59 53  1  0
 60 59  1  0
 61 60  1  0
 62 61  2  0
 60 63  1  1
 64 63  1  0
 65 64  2  0
 66 64  1  0
 67 61  1  0
 68 67  1  0
 69 68  1  0
 70 69  2  0
 68 71  1  1
 72 71  1  0
 73 72  2  0
 74 72  1  0
 75 73  1  0
 76 74  2  0
 77 76  1  0
 77 75  2  0
 78 77  1  0
 80 79  1  1
 81 80  1  0
 82 81  2  0
 83 80  1  0
 84 83  1  0
 85 83  1  0
 86 81  1  0
 87 86  1  0
 88 87  1  0
 89 88  2  0
 87 90  1  1
 91 90  1  0
 92 91  2  0
 93 91  1  0
 95 94  1  0
 96 95  1  0
 97 96  2  0
 95 98  1  1
M  END
$$$$
