
     RDKit          3D

152147  0  0  0  0  0  0  0  0999 V2000
   45.4610   -5.7730   24.7990 N   0  0  0  0  0  0  0  0  0  0  0  0
   44.7330   -4.6640   25.3870 C   0  0  2  0  0  0  0  0  0  0  0  0
   43.4000   -5.1450   25.9010 C   0  0  0  0  0  0  0  0  0  0  0  0
   42.9200   -4.6120   26.8920 O   0  0  0  0  0  0  0  0  0  0  0  0
   44.5430   -3.4600   24.4380 C   0  0  2  0  0  0  0  0  0  0  0  0
   43.8140   -3.8370   23.2460 O   0  0  0  0  0  0  0  0  0  0  0  0
   45.8990   -2.9140   24.0040 C   0  0  0  0  0  0  0  0  0  0  0  0
   42.8320   -6.1750   25.2540 N   0  0  0  0  0  0  0  0  0  0  0  0
   41.5750   -6.8030   25.6910 C   0  0  2  0  0  0  0  0  0  0  0  0
   41.7800   -7.5250   27.0460 C   0  0  0  0  0  0  0  0  0  0  0  0
   40.9370   -7.4340   27.9170 O   0  0  0  0  0  0  0  0  0  0  0  0
   41.0530   -7.8200   24.6490 C   0  0  0  0  0  0  0  0  0  0  0  0
   39.9820   -8.7520   25.2420 C   0  0  0  0  0  0  0  0  0  0  0  0
   40.5400   -7.1170   23.4120 C   0  0  0  0  0  0  0  0  0  0  0  0
   42.9100   -8.2230   27.1940 N   0  0  0  0  0  0  0  0  0  0  0  0
   43.2760   -8.8800   28.4550 C   0  0  2  0  0  0  0  0  0  0  0  0
   43.3630   -7.8200   29.5700 C   0  0  0  0  0  0  0  0  0  0  0  0
   42.7160   -7.9500   30.6140 O   0  0  0  0  0  0  0  0  0  0  0  0
   44.6170   -9.6050   28.2990 C   0  0  0  0  0  0  0  0  0  0  0  0
   45.0410  -10.3680   29.5240 C   0  0  0  0  0  0  0  0  0  0  0  0
   44.7520  -11.6770   29.8340 C   0  0  0  0  0  0  0  0  0  0  0  0
   45.8140   -9.8640   30.6180 C   0  0  0  0  0  0  0  0  0  0  0  0
   45.3180  -12.0090   31.0450 N   0  0  0  0  0  0  0  0  0  0  0  0
   45.9620  -10.9140   31.5530 C   0  0  0  0  0  0  0  0  0  0  0  0
   46.4100   -8.6320   30.9010 C   0  0  0  0  0  0  0  0  0  0  0  0
   46.6770  -10.7610   32.7430 C   0  0  0  0  0  0  0  0  0  0  0  0
   47.1170   -8.4750   32.0800 C   0  0  0  0  0  0  0  0  0  0  0  0
   47.2500   -9.5320   32.9870 C   0  0  0  0  0  0  0  0  0  0  0  0
   42.0840   -4.9180   29.9160 N   0  0  0  0  0  0  0  0  0  0  0  0
   40.8000   -4.3260   30.2990 C   0  0  2  0  0  0  0  0  0  0  0  0
   39.9390   -5.2810   31.1390 C   0  0  0  0  0  0  0  0  0  0  0  0
   39.2490   -4.8520   32.0940 O   0  0  0  0  0  0  0  0  0  0  0  0
   39.9950   -3.8450   29.0580 C   0  0  2  0  0  0  0  0  0  0  0  0
   40.6360   -2.5970   28.4180 C   0  0  0  0  0  0  0  0  0  0  0  0
   38.5990   -3.5050   29.4480 C   0  0  0  0  0  0  0  0  0  0  0  0
   40.1730   -2.3620   26.9110 C   0  0  0  0  0  0  0  0  0  0  0  0
   39.9520   -6.5500   30.7510 N   0  0  0  0  0  0  0  0  0  0  0  0
   39.2940   -7.6270   31.5120 C   0  0  2  0  0  0  0  0  0  0  0  0
   39.8500   -7.7150   32.9500 C   0  0  0  0  0  0  0  0  0  0  0  0
   39.1080   -7.8570   33.9100 O   0  0  0  0  0  0  0  0  0  0  0  0
   39.5020   -8.9640   30.7950 C   0  0  0  0  0  0  0  0  0  0  0  0
   38.4040  -10.0160   31.0420 C   0  0  0  0  0  0  0  0  0  0  0  0
   38.5610  -11.3020   30.1420 C   0  0  0  0  0  0  0  0  0  0  0  0
   38.8240  -10.9570   28.6690 C   0  0  0  0  0  0  0  0  0  0  0  0
   38.1090  -11.8140   27.6630 N   0  0  0  0  0  0  0  0  0  0  0  0
   38.7130   -4.8010   35.1250 N   0  0  0  0  0  0  0  0  0  0  0  0
   37.3130   -4.9230   35.5240 C   0  0  2  0  0  0  0  0  0  0  0  0
   37.1590   -5.9550   36.6540 C   0  0  0  0  0  0  0  0  0  0  0  0
   36.3790   -5.7570   37.5900 O   0  0  0  0  0  0  0  0  0  0  0  0
   36.4450   -5.2970   34.3300 C   0  0  0  0  0  0  0  0  0  0  0  0
   34.9620   -5.5340   34.6190 C   0  0  0  0  0  0  0  0  0  0  0  0
   34.2770   -4.3740   35.3310 C   0  0  0  0  0  0  0  0  0  0  0  0
   34.3360   -3.2460   34.8800 O   0  0  0  0  0  0  0  0  0  0  0  0
   33.6050   -4.6680   36.4340 N   0  0  0  0  0  0  0  0  0  0  0  0
   37.9110   -7.0460   36.5680 N   0  0  0  0  0  0  0  0  0  0  0  0
   37.8850   -8.0460   37.6290 C   0  0  2  0  0  0  0  0  0  0  0  0
   38.3280   -7.4590   38.9830 C   0  0  0  0  0  0  0  0  0  0  0  0
   37.7670   -7.8030   40.0190 O   0  0  0  0  0  0  0  0  0  0  0  0
   38.7150   -9.2400   37.2510 C   0  0  0  0  0  0  0  0  0  0  0  0
   37.9800   -4.1870   39.9890 N   0  0  0  0  0  0  0  0  0  0  0  0
   36.9360   -3.3220   40.5400 C   0  0  2  0  0  0  0  0  0  0  0  0
   35.7260   -4.1680   41.0220 C   0  0  0  0  0  0  0  0  0  0  0  0
   35.0330   -3.7900   41.9770 O   0  0  0  0  0  0  0  0  0  0  0  0
   36.4960   -2.1750   39.5690 C   0  0  2  0  0  0  0  0  0  0  0  0
   35.4300   -2.6470   38.5850 C   0  0  0  0  0  0  0  0  0  0  0  0
   37.7040   -1.5040   38.8830 C   0  0  0  0  0  0  0  0  0  0  0  0
   35.3280   -1.8000   37.3410 C   0  0  0  0  0  0  0  0  0  0  0  0
   35.5000   -5.3050   40.3580 N   0  0  0  0  0  0  0  0  0  0  0  0
   34.5220   -6.3000   40.7930 C   0  0  2  0  0  0  0  0  0  0  0  0
   34.8400   -6.8650   42.1920 C   0  0  0  0  0  0  0  0  0  0  0  0
   33.9380   -7.1150   42.9870 O   0  0  0  0  0  0  0  0  0  0  0  0
   34.4410   -7.4700   39.7890 C   0  0  0  0  0  0  0  0  0  0  0  0
   33.0420   -7.9440   39.3640 C   0  0  0  0  0  0  0  0  0  0  0  0
   32.1360   -8.2060   40.5690 C   0  0  0  0  0  0  0  0  0  0  0  0
   32.3970   -6.9320   38.4060 C   0  0  0  0  0  0  0  0  0  0  0  0
   36.9840   -4.1190   16.8020 N   0  0  0  0  0  0  0  0  0  0  0  0
   37.4450   -4.5470   18.1280 C   0  0  2  0  0  0  0  0  0  0  0  0
   38.2090   -3.3970   18.8670 C   0  0  0  0  0  0  0  0  0  0  0  0
   38.0330   -3.2200   20.0630 O   0  0  0  0  0  0  0  0  0  0  0  0
   38.3340   -5.7430   17.9790 C   0  0  0  0  0  0  0  0  0  0  0  0
   38.3030   -6.8020   19.0830 C   0  0  0  0  0  0  0  0  0  0  0  0
   39.7060   -7.2990   19.3730 C   0  0  0  0  0  0  0  0  0  0  0  0
   37.5970   -6.4450   20.3570 C   0  0  0  0  0  0  0  0  0  0  0  0
   35.7100   -1.2150   20.2980 N   0  0  0  0  0  0  0  0  0  0  0  0
   35.1490   -1.8640   21.4650 C   0  0  2  0  0  0  0  0  0  0  0  0
   36.0370   -1.6390   22.6980 C   0  0  0  0  0  0  0  0  0  0  0  0
   35.4910   -1.4250   23.7660 O   0  0  0  0  0  0  0  0  0  0  0  0
   34.8730   -3.3610   21.1880 C   0  0  0  0  0  0  0  0  0  0  0  0
   33.9080   -4.0650   22.1340 C   0  0  0  0  0  0  0  0  0  0  0  0
   32.4250   -3.6630   21.8780 C   0  0  0  0  0  0  0  0  0  0  0  0
   34.0770   -5.5960   22.0330 C   0  0  0  0  0  0  0  0  0  0  0  0
   37.3680   -1.6070   22.5460 N   0  0  0  0  0  0  0  0  0  0  0  0
   38.2730   -1.3460   23.6820 C   0  0  2  0  0  0  0  0  0  0  0  0
   38.2250    0.1010   24.1930 C   0  0  0  0  0  0  0  0  0  0  0  0
   38.4410    0.3540   25.3840 O   0  0  0  0  0  0  0  0  0  0  0  0
   39.7510   -1.7200   23.4290 C   0  0  2  0  0  0  0  0  0  0  0  0
   40.3070   -0.9690   22.3300 O   0  0  0  0  0  0  0  0  0  0  0  0
   39.9620   -3.2340   23.0900 C   0  0  0  0  0  0  0  0  0  0  0  0
   35.4110    1.9000   24.0710 N   0  0  0  0  0  0  0  0  0  0  0  0
   34.1750    1.8690   24.8670 C   0  0  2  0  0  0  0  0  0  0  0  0
   34.3920    1.2700   26.2600 C   0  0  0  0  0  0  0  0  0  0  0  0
   33.8200    1.7490   27.2290 O   0  0  0  0  0  0  0  0  0  0  0  0
   33.0840    1.0540   24.1780 C   0  0  0  0  0  0  0  0  0  0  0  0
   32.3510    1.7150   23.0080 C   0  0  0  0  0  0  0  0  0  0  0  0
   32.4930    2.9890   22.5660 C   0  0  0  0  0  0  0  0  0  0  0  0
   31.3700    1.1030   22.1460 C   0  0  0  0  0  0  0  0  0  0  0  0
   31.6540    3.2160   21.5050 N   0  0  0  0  0  0  0  0  0  0  0  0
   30.9690    2.0730   21.2110 C   0  0  0  0  0  0  0  0  0  0  0  0
   30.7690   -0.1650   22.0890 C   0  0  0  0  0  0  0  0  0  0  0  0
   30.0160    1.8260   20.2390 C   0  0  0  0  0  0  0  0  0  0  0  0
   29.8430   -0.4300   21.0970 C   0  0  0  0  0  0  0  0  0  0  0  0
   29.4550    0.5740   20.1890 C   0  0  0  0  0  0  0  0  0  0  0  0
   35.1810    0.1980   26.3410 N   0  0  0  0  0  0  0  0  0  0  0  0
   35.4950   -0.4330   27.6080 C   0  0  0  0  0  0  0  0  0  0  0  0
   36.3200    0.4410   28.5410 C   0  0  0  0  0  0  0  0  0  0  0  0
   36.1070    0.4440   29.7400 O   0  0  0  0  0  0  0  0  0  0  0  0
   37.3050    1.1390   28.0000 N   0  0  0  0  0  0  0  0  0  0  0  0
   38.1260    2.0730   28.7660 C   0  0  2  0  0  0  0  0  0  0  0  0
   37.2850    3.2830   29.2180 C   0  0  0  0  0  0  0  0  0  0  0  0
   37.4530    3.7880   30.3320 O   0  0  0  0  0  0  0  0  0  0  0  0
   39.3460    2.5250   27.9220 C   0  0  2  0  0  0  0  0  0  0  0  0
   40.2910    1.3580   27.6540 C   0  0  0  0  0  0  0  0  0  0  0  0
   40.0950    3.6980   28.5850 C   0  0  0  0  0  0  0  0  0  0  0  0
   41.2350    1.5890   26.5030 C   0  0  0  0  0  0  0  0  0  0  0  0
   34.0830    3.1670   29.9330 N   0  0  0  0  0  0  0  0  0  0  0  0
   33.2330    2.6620   31.0050 C   0  0  2  0  0  0  0  0  0  0  0  0
   34.0360    2.6080   32.3080 C   0  0  0  0  0  0  0  0  0  0  0  0
   33.5550    3.0350   33.3480 O   0  0  0  0  0  0  0  0  0  0  0  0
   32.5880    1.3020   30.6370 C   0  0  0  0  0  0  0  0  0  0  0  0
   31.5590    1.4840   29.5570 C   0  0  0  0  0  0  0  0  0  0  0  0
   30.7960    0.2370   29.1570 C   0  0  0  0  0  0  0  0  0  0  0  0
   29.6840    0.3330   28.6160 O   0  0  0  0  0  0  0  0  0  0  0  0
   31.3900   -0.9100   29.3620 N   0  0  0  0  0  0  0  0  0  0  0  0
   35.2750    2.1630   32.2260 N   0  0  0  0  0  0  0  0  0  0  0  0
   36.1480    2.0980   33.3850 C   0  0  2  0  0  0  0  0  0  0  0  0
   36.5110    3.4960   33.9280 C   0  0  0  0  0  0  0  0  0  0  0  0
   36.5210    3.7010   35.1450 O   0  0  0  0  0  0  0  0  0  0  0  0
   37.4140    1.3110   33.0390 C   0  0  0  0  0  0  0  0  0  0  0  0
   37.1100   -0.1870   32.8700 C   0  0  0  0  0  0  0  0  0  0  0  0
   38.2610   -0.9460   32.2140 C   0  0  0  0  0  0  0  0  0  0  0  0
   36.7380   -0.7810   34.2110 C   0  0  0  0  0  0  0  0  0  0  0  0
   33.7630    4.9300   35.9370 N   0  0  0  0  0  0  0  0  0  0  0  0
   33.6130    4.2970   37.2370 C   0  0  2  0  0  0  0  0  0  0  0  0
   34.5710    4.8380   38.2830 C   0  0  0  0  0  0  0  0  0  0  0  0
   34.2150    4.9010   39.4580 O   0  0  0  0  0  0  0  0  0  0  0  0
   33.7930    2.7940   37.1390 C   0  0  0  0  0  0  0  0  0  0  0  0
   33.2230    2.0300   38.3490 C   0  0  0  0  0  0  0  0  0  0  0  0
   32.2940    0.8690   37.9450 C   0  0  0  0  0  0  0  0  0  0  0  0
   32.7700    0.2360   36.7040 N   0  0  0  0  0  0  0  0  0  0  0  0
   32.1120   -0.6780   35.9980 C   0  0  0  0  0  0  0  0  0  0  0  0
   30.9140   -1.1350   36.4010 N   0  0  0  0  0  0  0  0  0  0  0  0
   32.6750   -1.1390   34.8770 N   0  0  0  0  0  0  0  0  0  0  0  0
  2  1  1  6
  3  2  1  0
  4  3  2  0
  5  2  1  0
  6  5  1  0
  5  7  1  6
  8  3  1  0
  9  8  1  6
 10  9  1  0
 11 10  2  0
 12  9  1  0
 13 12  1  0
 14 12  1  0
 15 10  1  0
 16 15  1  0
 17 16  1  0
 18 17  2  0
 16 19  1  6
 20 19  1  0
 21 20  2  0
 22 20  1  0
 23 21  1  0
 24 23  1  0
 24 22  2  0
 25 22  1  0
 26 24  1  0
 27 25  2  0
 28 27  1  0
 28 26  2  0
 30 29  1  6
 31 30  1  0
 32 31  2  0
 33 30  1  0
 34 33  1  0
 33 35  1  1
 36 34  1  0
 37 31  1  0
 38 37  1  0
 39 38  1  0
 40 39  2  0
 38 41  1  6
 42 41  1  0
 43 42  1  0
 44 43  1  0
 45 44  1  0
 47 46  1  6
 48 47  1  0
 49 48  2  0
 50 47  1  0
 51 50  1  0
 52 51  1  0
 53 52  2  0
 54 52  1  0
 55 48  1  0
 56 55  1  0
 57 56  1  0
 58 57  2  0
 56 59  1  6
 61 60  1  6
 62 61  1  0
 63 62  2  0
 64 61  1  0
 65 64  1  0
 64 66  1  6
 67 65  1  0
 68 62  1  0
 69 68  1  0
 70 69  1  0
 71 70  2  0
 69 72  1  6
 73 72  1  0
 74 73  1  0
 75 73  1  0
 77 76  1  6
 78 77  1  0
 79 78  2  0
 80 77  1  0
 81 80  1  0
 82 81  1  0
 83 81  1  0
 85 84  1  6
 86 85  1  0
 87 86  2  0
 88 85  1  0
 89 88  1  0
 90 89  1  0
 91 89  1  0
 92 86  1  0
 93 92  1  6
 94 93  1  0
 95 94  2  0
 96 93  1  0
 97 96  1  0
 96 98  1  6
100 99  1  6
101100  1  0
102101  2  0
103100  1  0
104103  1  0
105104  2  0
106104  1  0
107105  1  0
108107  1  0
108106  2  0
109106  1  0
110108  1  0
111109  2  0
112111  1  0
112110  2  0
113101  1  0
114113  1  0
115114  1  0
116115  2  0
117115  1  0
118117  1  6
119118  1  0
120119  2  0
121118  1  0
122121  1  0
121123  1  1
124122  1  0
126125  1  6
127126  1  0
128127  2  0
129126  1  0
130129  1  0
131130  1  0
132131  2  0
133131  1  0
134127  1  0
135134  1  0
136135  1  0
137136  2  0
135138  1  6
139138  1  0
140139  1  0
141139  1  0
143142  1  6
144143  1  0
145144  2  0
146143  1  0
147146  1  0
148147  1  0
149148  1  0
150149  1  0
151150  1  0
152150  2  0
M  END
$$$$
