
     RDKit          3D

121116  0  0  0  0  0  0  0  0999 V2000
   -3.4030   47.0800   32.3570 N   0  0  0  0  0  0  0  0  0  0  0  0
   -4.5530   46.8260   33.2120 C   0  0  2  0  0  0  0  0  0  0  0  0
   -4.2510   47.3120   34.6010 C   0  0  0  0  0  0  0  0  0  0  0  0
   -3.2790   46.8660   35.1970 O   0  0  0  0  0  0  0  0  0  0  0  0
   -4.8620   45.3410   33.2900 C   0  0  0  0  0  0  0  0  0  0  0  0
   -5.3390   44.6290   31.7000 S   0  0  0  0  0  0  0  0  0  0  0  0
   -5.0650   48.2370   35.1070 N   0  0  0  0  0  0  0  0  0  0  0  0
   -4.8660   48.7340   36.4590 C   0  0  2  0  0  0  0  0  0  0  0  0
   -5.2340   47.5290   37.3270 C   0  0  0  0  0  0  0  0  0  0  0  0
   -4.3880   46.9410   37.9970 O   0  0  0  0  0  0  0  0  0  0  0  0
   -5.8080   49.9070   36.7750 C   0  0  0  0  0  0  0  0  0  0  0  0
   -5.3870   51.2250   36.1130 C   0  0  0  0  0  0  0  0  0  0  0  0
   -4.1830   51.4040   35.8080 O   0  0  0  0  0  0  0  0  0  0  0  0
   -6.2740   52.0950   35.9250 O   0  0  0  0  0  0  0  0  0  0  0  0
   -6.5070   47.1510   37.2920 N   0  0  0  0  0  0  0  0  0  0  0  0
   -6.9810   46.0030   38.0460 C   0  0  2  0  0  0  0  0  0  0  0  0
   -6.8570   44.7100   37.2420 C   0  0  0  0  0  0  0  0  0  0  0  0
   -7.1620   44.6620   36.0520 O   0  0  0  0  0  0  0  0  0  0  0  0
   -8.4570   46.1600   38.4680 C   0  0  2  0  0  0  0  0  0  0  0  0
   -8.5820   47.2100   39.5680 C   0  0  0  0  0  0  0  0  0  0  0  0
   -9.0040   44.8380   38.9800 C   0  0  0  0  0  0  0  0  0  0  0  0
   -7.6380   47.1080   40.7670 C   0  0  0  0  0  0  0  0  0  0  0  0
   -8.6190   49.2260   29.3890 N   0  0  0  0  0  0  0  0  0  0  0  0
   -8.5470   50.5860   28.8790 C   0  0  2  0  0  0  0  0  0  0  0  0
   -8.5270   51.4570   30.1240 C   0  0  0  0  0  0  0  0  0  0  0  0
   -8.7960   50.9670   31.2280 O   0  0  0  0  0  0  0  0  0  0  0  0
   -9.7870   50.8980   28.0360 C   0  0  0  0  0  0  0  0  0  0  0  0
  -10.9850   50.6510   28.7660 O   0  0  0  0  0  0  0  0  0  0  0  0
   -8.2350   52.7430   29.9610 N   0  0  0  0  0  0  0  0  0  0  0  0
   -8.1750   53.6270   31.1170 C   0  0  2  0  0  0  0  0  0  0  0  0
   -9.4970   54.2850   31.5270 C   0  0  0  0  0  0  0  0  0  0  0  0
   -9.7410   54.5030   32.7200 O   0  0  0  0  0  0  0  0  0  0  0  0
   -7.1070   54.6910   30.8890 C   0  0  0  0  0  0  0  0  0  0  0  0
  -10.3600   54.5680   30.5550 N   0  0  0  0  0  0  0  0  0  0  0  0
  -11.6300   55.2460   30.8370 C   0  0  2  0  0  0  0  0  0  0  0  0
  -12.7650   54.4240   31.4400 C   0  0  0  0  0  0  0  0  0  0  0  0
  -13.6030   53.9090   30.7180 O   0  0  0  0  0  0  0  0  0  0  0  0
  -12.1430   55.9090   29.5640 C   0  0  0  0  0  0  0  0  0  0  0  0
  -13.1070   57.0460   29.8480 C   0  0  0  0  0  0  0  0  0  0  0  0
  -13.8830   56.9420   30.8300 O   0  0  0  0  0  0  0  0  0  0  0  0
  -13.0900   58.0370   29.0750 O   0  0  0  0  0  0  0  0  0  0  0  0
  -12.8180   54.3510   32.7650 N   0  0  0  0  0  0  0  0  0  0  0  0
  -13.8540   53.5880   33.4590 C   0  0  2  0  0  0  0  0  0  0  0  0
  -15.2850   53.8820   33.0380 C   0  0  0  0  0  0  0  0  0  0  0  0
  -16.1090   52.9880   32.9570 O   0  0  0  0  0  0  0  0  0  0  0  0
  -13.7320   53.7880   34.9390 C   0  0  0  0  0  0  0  0  0  0  0  0
  -15.6000   55.1350   32.7690 N   0  0  0  0  0  0  0  0  0  0  0  0
  -16.9640   55.4640   32.3810 C   0  0  2  0  0  0  0  0  0  0  0  0
  -17.3060   55.0660   30.9590 C   0  0  0  0  0  0  0  0  0  0  0  0
  -18.4530   54.7270   30.6680 O   0  0  0  0  0  0  0  0  0  0  0  0
  -17.2170   56.9470   32.5960 C   0  0  0  0  0  0  0  0  0  0  0  0
  -17.1180   57.3320   34.0560 C   0  0  0  0  0  0  0  0  0  0  0  0
  -15.9850   57.3060   34.6170 O   0  0  0  0  0  0  0  0  0  0  0  0
  -18.1800   57.6410   34.6450 O   0  0  0  0  0  0  0  0  0  0  0  0
  -16.3140   55.1120   30.0730 N   0  0  0  0  0  0  0  0  0  0  0  0
  -16.5250   54.7100   28.6880 C   0  0  2  0  0  0  0  0  0  0  0  0
  -16.8030   53.2060   28.7270 C   0  0  0  0  0  0  0  0  0  0  0  0
  -17.6350   52.6870   27.9670 O   0  0  0  0  0  0  0  0  0  0  0  0
  -15.2890   55.0000   27.8570 C   0  0  0  0  0  0  0  0  0  0  0  0
  -15.5570   52.3600   43.6810 N   0  0  0  0  0  0  0  0  0  0  0  0
  -14.6280   53.3370   43.1130 C   0  0  2  0  0  0  0  0  0  0  0  0
  -13.3920   53.6120   43.9490 C   0  0  0  0  0  0  0  0  0  0  0  0
  -12.3450   53.9680   43.4030 O   0  0  0  0  0  0  0  0  0  0  0  0
  -15.3340   54.6620   42.8400 C   0  0  0  0  0  0  0  0  0  0  0  0
  -16.5140   54.4330   41.9020 C   0  0  0  0  0  0  0  0  0  0  0  0
  -15.7910   55.2650   44.1420 C   0  0  0  0  0  0  0  0  0  0  0  0
  -11.7660   51.4060   45.6370 N   0  0  0  0  0  0  0  0  0  0  0  0
  -10.9430   50.2130   45.7330 C   0  0  2  0  0  0  0  0  0  0  0  0
   -9.6340   50.4280   44.9640 C   0  0  0  0  0  0  0  0  0  0  0  0
   -9.6390   50.5910   43.7380 O   0  0  0  0  0  0  0  0  0  0  0  0
  -11.6980   49.0350   45.1440 C   0  0  0  0  0  0  0  0  0  0  0  0
  -11.3620   47.7430   45.8280 C   0  0  0  0  0  0  0  0  0  0  0  0
  -10.2200   47.5170   46.2220 O   0  0  0  0  0  0  0  0  0  0  0  0
  -12.3540   46.8770   45.9670 N   0  0  0  0  0  0  0  0  0  0  0  0
   -8.5160   50.4300   45.6820 N   0  0  0  0  0  0  0  0  0  0  0  0
   -7.2080   50.6450   45.0510 C   0  0  2  0  0  0  0  0  0  0  0  0
   -6.4230   49.3200   45.0160 C   0  0  0  0  0  0  0  0  0  0  0  0
   -5.2410   49.2860   44.6470 O   0  0  0  0  0  0  0  0  0  0  0  0
   -6.4280   51.7210   45.8370 C   0  0  0  0  0  0  0  0  0  0  0  0
   -5.1750   52.3030   45.1470 C   0  0  0  0  0  0  0  0  0  0  0  0
   -5.4810   53.4460   44.1510 C   0  0  0  0  0  0  0  0  0  0  0  0
   -6.1820   54.6590   44.7930 C   0  0  0  0  0  0  0  0  0  0  0  0
   -7.6500   54.4350   44.9990 N   0  0  0  0  0  0  0  0  0  0  0  0
   -7.1030   48.2420   45.4110 N   0  0  0  0  0  0  0  0  0  0  0  0
   -6.5390   46.8980   45.4360 C   0  0  2  0  0  0  0  0  0  0  0  0
   -6.3450   46.3720   44.0130 C   0  0  0  0  0  0  0  0  0  0  0  0
   -7.3120   46.1410   43.2940 O   0  0  0  0  0  0  0  0  0  0  0  0
   -7.4780   45.9840   46.2170 C   0  0  0  0  0  0  0  0  0  0  0  0
   -7.1810   44.4890   46.2340 C   0  0  0  0  0  0  0  0  0  0  0  0
   -5.7030   44.2610   46.5540 C   0  0  0  0  0  0  0  0  0  0  0  0
   -8.0840   43.8080   47.2540 C   0  0  0  0  0  0  0  0  0  0  0  0
   -5.0910   46.1650   43.6190 N   0  0  0  0  0  0  0  0  0  0  0  0
   -4.7670   45.7130   42.2670 C   0  0  2  0  0  0  0  0  0  0  0  0
   -5.3460   44.3740   41.8400 C   0  0  0  0  0  0  0  0  0  0  0  0
   -6.0060   44.2990   40.8110 O   0  0  0  0  0  0  0  0  0  0  0  0
   -3.2540   45.6940   42.0570 C   0  0  0  0  0  0  0  0  0  0  0  0
   -2.8600   45.3900   40.6360 C   0  0  0  0  0  0  0  0  0  0  0  0
   -1.4040   45.7450   40.4020 C   0  0  0  0  0  0  0  0  0  0  0  0
   -0.9890   45.4800   38.9610 C   0  0  0  0  0  0  0  0  0  0  0  0
   -1.8190   46.2290   37.9870 N   0  0  0  0  0  0  0  0  0  0  0  0
  -10.7200   48.1540   35.3950 N   0  0  0  0  0  0  0  0  0  0  0  0
  -11.0480   49.0560   36.4820 C   0  0  2  0  0  0  0  0  0  0  0  0
  -12.0600   48.4940   37.4670 C   0  0  0  0  0  0  0  0  0  0  0  0
  -12.9510   47.7330   37.0880 O   0  0  0  0  0  0  0  0  0  0  0  0
  -11.6110   50.3450   35.9140 C   0  0  0  0  0  0  0  0  0  0  0  0
  -12.9020   50.1270   35.3710 O   0  0  0  0  0  0  0  0  0  0  0  0
  -11.9370   48.8980   38.7300 N   0  0  0  0  0  0  0  0  0  0  0  0
  -12.8620   48.4370   39.7560 C   0  0  2  0  0  0  0  0  0  0  0  0
  -14.2800   48.7430   39.2960 C   0  0  0  0  0  0  0  0  0  0  0  0
  -15.1680   47.8980   39.4100 O   0  0  0  0  0  0  0  0  0  0  0  0
  -12.5980   49.1380   41.0960 C   0  0  0  0  0  0  0  0  0  0  0  0
  -11.2930   48.8710   41.5690 O   0  0  0  0  0  0  0  0  0  0  0  0
  -14.4910   49.9440   38.7590 N   0  0  0  0  0  0  0  0  0  0  0  0
  -15.8260   50.3240   38.3090 C   0  0  2  0  0  0  0  0  0  0  0  0
  -16.2950   49.5180   37.0990 C   0  0  0  0  0  0  0  0  0  0  0  0
  -17.4720   49.1630   36.9990 O   0  0  0  0  0  0  0  0  0  0  0  0
  -15.8910   51.8210   37.9890 C   0  0  0  0  0  0  0  0  0  0  0  0
  -17.3150   52.3070   37.7640 C   0  0  0  0  0  0  0  0  0  0  0  0
  -17.4780   53.8030   37.9840 C   0  0  0  0  0  0  0  0  0  0  0  0
  -17.0800   54.6070   36.7710 C   0  0  0  0  0  0  0  0  0  0  0  0
  -17.7810   55.9210   36.7980 N   0  0  0  0  0  0  0  0  0  0  0  0
  2  1  1  6
  3  2  1  0
  4  3  2  0
  5  2  1  0
  6  5  1  0
  7  3  1  0
  8  7  1  0
  9  8  1  0
 10  9  2  0
  8 11  1  1
 12 11  1  0
 13 12  2  0
 14 12  1  0
 15  9  1  0
 16 15  1  6
 17 16  1  0
 18 17  2  0
 19 16  1  0
 20 19  1  0
 19 21  1  1
 22 20  1  0
 24 23  1  1
 25 24  1  0
 26 25  2  0
 27 24  1  0
 28 27  1  0
 29 25  1  0
 30 29  1  0
 31 30  1  0
 32 31  2  0
 30 33  1  6
 34 31  1  0
 35 34  1  0
 36 35  1  0
 37 36  2  0
 35 38  1  6
 39 38  1  0
 40 39  2  0
 41 39  1  0
 42 36  1  0
 43 42  1  0
 44 43  1  0
 45 44  2  0
 43 46  1  1
 47 44  1  0
 48 47  1  0
 49 48  1  0
 50 49  2  0
 48 51  1  6
 52 51  1  0
 53 52  2  0
 54 52  1  0
 55 49  1  0
 56 55  1  0
 57 56  1  0
 58 57  2  0
 56 59  1  6
 61 60  1  1
 62 61  1  0
 63 62  2  0
 64 61  1  0
 65 64  1  0
 66 64  1  0
 68 67  1  6
 69 68  1  0
 70 69  2  0
 71 68  1  0
 72 71  1  0
 73 72  2  0
 74 72  1  0
 75 69  1  0
 76 75  1  0
 77 76  1  0
 78 77  2  0
 76 79  1  1
 80 79  1  0
 81 80  1  0
 82 81  1  0
 83 82  1  0
 84 77  1  0
 85 84  1  0
 86 85  1  0
 87 86  2  0
 85 88  1  1
 89 88  1  0
 90 89  1  0
 91 89  1  0
 92 86  1  0
 93 92  1  0
 94 93  1  0
 95 94  2  0
 93 96  1  1
 97 96  1  0
 98 97  1  0
 99 98  1  0
100 99  1  0
102101  1  6
103102  1  0
104103  2  0
105102  1  0
106105  1  0
107103  1  0
108107  1  0
109108  1  0
110109  2  0
108111  1  1
112111  1  0
113109  1  0
114113  1  0
115114  1  0
116115  2  0
114117  1  6
118117  1  0
119118  1  0
120119  1  0
121120  1  0
M  END
$$$$
