
     RDKit          3D

126121  0  0  0  0  0  0  0  0999 V2000
   90.1660  156.2070  263.4440 N   0  0  0  0  0  0  0  0  0  0  0  0
   90.6210  155.0260  262.7280 C   0  0  2  0  0  0  0  0  0  0  0  0
   90.9630  153.9250  263.7280 C   0  0  0  0  0  0  0  0  0  0  0  0
   91.9760  153.9980  264.4290 O   0  0  0  0  0  0  0  0  0  0  0  0
   91.8340  155.3830  261.8660 C   0  0  0  0  0  0  0  0  0  0  0  0
   92.3790  154.2000  261.0970 C   0  0  0  0  0  0  0  0  0  0  0  0
   93.4170  154.3720  260.4240 O   0  0  0  0  0  0  0  0  0  0  0  0
   91.7820  153.1040  261.1620 O   0  0  0  0  0  0  0  0  0  0  0  0
   90.1160  152.9030  263.8000 N   0  0  0  0  0  0  0  0  0  0  0  0
   90.2990  151.8500  264.7950 C   0  0  2  0  0  0  0  0  0  0  0  0
   91.5570  151.0140  264.5570 C   0  0  0  0  0  0  0  0  0  0  0  0
   91.9980  150.2800  265.4390 O   0  0  0  0  0  0  0  0  0  0  0  0
   89.0540  150.9620  264.8950 C   0  0  0  0  0  0  0  0  0  0  0  0
   88.7700  150.2130  263.6180 C   0  0  0  0  0  0  0  0  0  0  0  0
   89.0270  150.7070  262.5230 O   0  0  0  0  0  0  0  0  0  0  0  0
   88.2320  149.0120  263.7500 N   0  0  0  0  0  0  0  0  0  0  0  0
   92.1410  151.1520  263.3710 N   0  0  0  0  0  0  0  0  0  0  0  0
   93.3720  150.4500  263.0240 C   0  0  2  0  0  0  0  0  0  0  0  0
   94.5860  150.9840  263.7860 C   0  0  0  0  0  0  0  0  0  0  0  0
   95.5410  150.2470  264.0180 O   0  0  0  0  0  0  0  0  0  0  0  0
   93.6170  150.5230  261.5210 C   0  0  0  0  0  0  0  0  0  0  0  0
   94.5520  152.2600  264.1670 N   0  0  0  0  0  0  0  0  0  0  0  0
   95.6660  152.8750  264.8990 C   0  0  2  0  0  0  0  0  0  0  0  0
   95.6180  152.5490  266.3920 C   0  0  0  0  0  0  0  0  0  0  0  0
   94.5430  152.4960  266.9990 O   0  0  0  0  0  0  0  0  0  0  0  0
   95.6840  154.3960  264.7090 C   0  0  0  0  0  0  0  0  0  0  0  0
   95.4570  154.8710  263.2810 C   0  0  0  0  0  0  0  0  0  0  0  0
   96.4610  154.2760  262.3080 C   0  0  0  0  0  0  0  0  0  0  0  0
   97.8620  154.7920  262.5620 C   0  0  0  0  0  0  0  0  0  0  0  0
   98.8410  154.2240  261.5960 N   0  0  0  0  0  0  0  0  0  0  0  0
   96.7920  152.3350  266.9760 N   0  0  0  0  0  0  0  0  0  0  0  0
   96.9090  152.0060  268.3860 C   0  0  2  0  0  0  0  0  0  0  0  0
   96.6580  153.2310  269.2610 C   0  0  0  0  0  0  0  0  0  0  0  0
   97.0640  154.3440  268.9220 O   0  0  0  0  0  0  0  0  0  0  0  0
   98.3100  151.4440  268.6970 C   0  0  2  0  0  0  0  0  0  0  0  0
   98.5370  150.2890  267.8880 O   0  0  0  0  0  0  0  0  0  0  0  0
   98.4420  151.0580  270.1700 C   0  0  0  0  0  0  0  0  0  0  0  0
   92.3370  140.5290  275.1140 N   0  0  0  0  0  0  0  0  0  0  0  0
   92.9600  140.5280  273.7970 C   0  0  2  0  0  0  0  0  0  0  0  0
   92.4300  139.3950  272.9200 C   0  0  0  0  0  0  0  0  0  0  0  0
   91.9860  138.3670  273.4190 O   0  0  0  0  0  0  0  0  0  0  0  0
   94.4760  140.3950  273.9480 C   0  0  0  0  0  0  0  0  0  0  0  0
   95.1100  140.3110  272.6870 O   0  0  0  0  0  0  0  0  0  0  0  0
   92.4600  139.6030  271.6090 N   0  0  0  0  0  0  0  0  0  0  0  0
   92.1450  138.5450  270.6600 C   0  0  2  0  0  0  0  0  0  0  0  0
   93.2620  138.4740  269.6250 C   0  0  0  0  0  0  0  0  0  0  0  0
   93.6490  139.4970  269.0560 O   0  0  0  0  0  0  0  0  0  0  0  0
   90.7990  138.8040  269.9860 C   0  0  0  0  0  0  0  0  0  0  0  0
   90.3750  137.6500  269.2860 O   0  0  0  0  0  0  0  0  0  0  0  0
   93.7870  137.2730  269.3930 N   0  0  0  0  0  0  0  0  0  0  0  0
   94.9730  137.1120  268.5520 C   0  0  0  0  0  0  0  0  0  0  0  0
   95.4140  135.6710  268.3830 C   0  0  0  0  0  0  0  0  0  0  0  0
   94.8500  134.7650  269.0000 O   0  0  0  0  0  0  0  0  0  0  0  0
   96.4280  135.4560  267.5460 N   0  0  0  0  0  0  0  0  0  0  0  0
   96.8570  134.1020  267.2040 C   0  0  0  0  0  0  0  0  0  0  0  0
   98.2000  133.6800  267.7870 C   0  0  0  0  0  0  0  0  0  0  0  0
   98.7330  132.6360  267.4220 O   0  0  0  0  0  0  0  0  0  0  0  0
   98.7430  134.4870  268.6920 N   0  0  0  0  0  0  0  0  0  0  0  0
  100.0000  134.1570  269.3680 C   0  0  2  0  0  0  0  0  0  0  0  0
  100.0390  134.6850  270.7980 C   0  0  0  0  0  0  0  0  0  0  0  0
   99.4300  135.7080  271.0960 O   0  0  0  0  0  0  0  0  0  0  0  0
  101.2000  134.6780  268.5700 C   0  0  0  0  0  0  0  0  0  0  0  0
  101.5890  133.7460  267.4390 C   0  0  0  0  0  0  0  0  0  0  0  0
  101.5810  134.1980  266.2780 O   0  0  0  0  0  0  0  0  0  0  0  0
  101.8820  132.5550  267.7080 O   0  0  0  0  0  0  0  0  0  0  0  0
  100.9870  138.2590  271.6200 N   0  0  0  0  0  0  0  0  0  0  0  0
   99.9460  139.2600  271.4090 C   0  0  2  0  0  0  0  0  0  0  0  0
   98.8990  139.1850  272.5120 C   0  0  0  0  0  0  0  0  0  0  0  0
   98.5410  140.1980  273.1180 O   0  0  0  0  0  0  0  0  0  0  0  0
   99.2410  139.0380  270.0490 C   0  0  2  0  0  0  0  0  0  0  0  0
  100.2150  139.2800  268.8930 C   0  0  0  0  0  0  0  0  0  0  0  0
   98.0390  139.9490  269.9180 C   0  0  0  0  0  0  0  0  0  0  0  0
   99.7790  138.6530  267.5780 C   0  0  0  0  0  0  0  0  0  0  0  0
   93.7220  148.7960  271.5940 N   0  0  0  0  0  0  0  0  0  0  0  0
   93.0870  148.9410  270.2930 C   0  0  2  0  0  0  0  0  0  0  0  0
   91.5850  148.8780  270.4950 C   0  0  0  0  0  0  0  0  0  0  0  0
   91.0890  148.1230  271.3340 O   0  0  0  0  0  0  0  0  0  0  0  0
   93.5000  147.8500  269.2880 C   0  0  2  0  0  0  0  0  0  0  0  0
   92.9540  146.5910  269.6960 O   0  0  0  0  0  0  0  0  0  0  0  0
   95.0150  147.7460  269.1880 C   0  0  0  0  0  0  0  0  0  0  0  0
   90.8680  149.6790  269.7180 N   0  0  0  0  0  0  0  0  0  0  0  0
   89.4260  149.7830  269.8280 C   0  0  2  0  0  0  0  0  0  0  0  0
   88.7500  148.8920  268.7870 C   0  0  0  0  0  0  0  0  0  0  0  0
   89.1550  148.8840  267.6240 O   0  0  0  0  0  0  0  0  0  0  0  0
   89.0230  151.2460  269.6290 C   0  0  0  0  0  0  0  0  0  0  0  0
   87.5380  151.5300  269.7500 C   0  0  0  0  0  0  0  0  0  0  0  0
   87.2860  153.0290  269.7250 C   0  0  0  0  0  0  0  0  0  0  0  0
   87.7430  153.6300  268.4790 N   0  0  0  0  0  0  0  0  0  0  0  0
   86.9800  153.7670  267.4000 C   0  0  0  0  0  0  0  0  0  0  0  0
   85.7250  153.3450  267.4230 N   0  0  0  0  0  0  0  0  0  0  0  0
   87.4680  154.3260  266.3010 N   0  0  0  0  0  0  0  0  0  0  0  0
   87.7230  148.1480  269.2020 N   0  0  0  0  0  0  0  0  0  0  0  0
   86.9790  147.2660  268.2900 C   0  0  2  0  0  0  0  0  0  0  0  0
   86.2840  148.0290  267.1700 C   0  0  0  0  0  0  0  0  0  0  0  0
   85.7190  149.1020  267.3930 O   0  0  0  0  0  0  0  0  0  0  0  0
   85.9200  146.4560  269.0450 C   0  0  0  0  0  0  0  0  0  0  0  0
   86.4880  145.2200  269.7210 C   0  0  0  0  0  0  0  0  0  0  0  0
   87.7210  145.1300  269.9090 O   0  0  0  0  0  0  0  0  0  0  0  0
   85.6840  144.3350  270.0760 O   0  0  0  0  0  0  0  0  0  0  0  0
   86.2940  147.4470  265.9740 N   0  0  0  0  0  0  0  0  0  0  0  0
   85.6200  148.0370  264.8250 C   0  0  0  0  0  0  0  0  0  0  0  0
   84.3060  147.3670  264.4480 C   0  0  0  0  0  0  0  0  0  0  0  0
   83.6060  147.8280  263.5420 O   0  0  0  0  0  0  0  0  0  0  0  0
   93.5800  145.1710  275.3060 N   0  0  0  0  0  0  0  0  0  0  0  0
   94.9800  145.4810  275.5630 C   0  0  2  0  0  0  0  0  0  0  0  0
   95.8520  145.0230  274.4030 C   0  0  0  0  0  0  0  0  0  0  0  0
   95.5650  143.9990  273.7810 O   0  0  0  0  0  0  0  0  0  0  0  0
   95.2860  144.6620  276.8130 C   0  0  0  0  0  0  0  0  0  0  0  0
   94.3690  143.4860  276.7040 C   0  0  0  0  0  0  0  0  0  0  0  0
   93.1050  144.0420  276.1240 C   0  0  0  0  0  0  0  0  0  0  0  0
   98.7830  146.5680  271.1180 N   0  0  0  0  0  0  0  0  0  0  0  0
   98.8040  147.4360  269.9490 C   0  0  0  0  0  0  0  0  0  0  0  0
   98.6240  146.6250  268.6820 C   0  0  0  0  0  0  0  0  0  0  0  0
   98.4350  145.4100  268.7440 O   0  0  0  0  0  0  0  0  0  0  0  0
   98.6690  147.2920  267.5330 N   0  0  0  0  0  0  0  0  0  0  0  0
   98.5630  146.6110  266.2410 C   0  0  0  0  0  0  0  0  0  0  0  0
   99.9270  146.2160  265.7040 C   0  0  0  0  0  0  0  0  0  0  0  0
  100.0350  145.5540  264.6700 O   0  0  0  0  0  0  0  0  0  0  0  0
  100.9760  146.6350  266.4080 N   0  0  0  0  0  0  0  0  0  0  0  0
  102.3440  146.3390  266.0000 C   0  0  2  0  0  0  0  0  0  0  0  0
  103.2190  146.0640  267.2160 C   0  0  0  0  0  0  0  0  0  0  0  0
  103.0110  146.6310  268.2960 O   0  0  0  0  0  0  0  0  0  0  0  0
  102.9330  147.4900  265.1720 C   0  0  0  0  0  0  0  0  0  0  0  0
  104.3450  147.1920  264.6830 C   0  0  0  0  0  0  0  0  0  0  0  0
  105.3080  147.8000  265.2060 O   0  0  0  0  0  0  0  0  0  0  0  0
  104.4970  146.3280  263.7920 O   0  0  0  0  0  0  0  0  0  0  0  0
  2  1  1  1
  3  2  1  0
  4  3  2  0
  5  2  1  0
  6  5  1  0
  7  6  2  0
  8  6  1  0
  9  3  1  0
 10  9  1  0
 11 10  1  0
 12 11  2  0
 10 13  1  6
 14 13  1  0
 15 14  2  0
 16 14  1  0
 17 11  1  0
 18 17  1  0
 19 18  1  0
 20 19  2  0
 18 21  1  6
 22 19  1  0
 23 22  1  0
 24 23  1  0
 25 24  2  0
 23 26  1  1
 27 26  1  0
 28 27  1  0
 29 28  1  0
 30 29  1  0
 31 24  1  0
 32 31  1  6
 33 32  1  0
 34 33  2  0
 35 32  1  0
 36 35  1  0
 35 37  1  1
 39 38  1  1
 40 39  1  0
 41 40  2  0
 42 39  1  0
 43 42  1  0
 44 40  1  0
 45 44  1  0
 46 45  1  0
 47 46  2  0
 45 48  1  6
 49 48  1  0
 50 46  1  0
 51 50  1  0
 52 51  1  0
 53 52  2  0
 54 52  1  0
 55 54  1  0
 56 55  1  0
 57 56  2  0
 58 56  1  0
 59 58  1  0
 60 59  1  0
 61 60  2  0
 59 62  1  6
 63 62  1  0
 64 63  2  0
 65 63  1  0
 67 66  1  1
 68 67  1  0
 69 68  2  0
 70 67  1  0
 71 70  1  0
 70 72  1  6
 73 71  1  0
 75 74  1  1
 76 75  1  0
 77 76  2  0
 78 75  1  0
 79 78  1  0
 78 80  1  1
 81 76  1  0
 82 81  1  0
 83 82  1  0
 84 83  2  0
 82 85  1  6
 86 85  1  0
 87 86  1  0
 88 87  1  0
 89 88  1  0
 90 89  1  0
 91 89  2  0
 92 83  1  0
 93 92  1  0
 94 93  1  0
 95 94  2  0
 93 96  1  1
 97 96  1  0
 98 97  2  0
 99 97  1  0
100 94  1  0
101100  1  0
102101  1  0
103102  2  0
105104  1  0
105106  1  6
107106  2  0
108105  1  0
109108  1  0
110109  1  0
110104  1  0
112111  1  0
113112  1  0
114113  2  0
115113  1  0
116115  1  0
117116  1  0
118117  2  0
119117  1  0
120119  1  0
121120  1  0
122121  2  0
120123  1  1
124123  1  0
125124  2  0
126124  1  0
M  END
$$$$
