
     RDKit          3D

126121  0  0  0  0  0  0  0  0999 V2000
  107.2520  144.7230  275.2860 N   0  0  0  0  0  0  0  0  0  0  0  0
  106.1320  144.9140  276.1930 C   0  0  2  0  0  0  0  0  0  0  0  0
  104.8630  144.9830  275.3560 C   0  0  0  0  0  0  0  0  0  0  0  0
  104.6270  145.9690  274.6620 O   0  0  0  0  0  0  0  0  0  0  0  0
  106.3140  146.1990  276.9940 C   0  0  0  0  0  0  0  0  0  0  0  0
  105.6650  146.1120  278.2480 O   0  0  0  0  0  0  0  0  0  0  0  0
  104.0490  143.9340  275.4170 N   0  0  0  0  0  0  0  0  0  0  0  0
  102.9500  143.7720  274.4630 C   0  0  2  0  0  0  0  0  0  0  0  0
  101.6910  144.5810  274.7860 C   0  0  0  0  0  0  0  0  0  0  0  0
  101.0170  145.0640  273.8780 O   0  0  0  0  0  0  0  0  0  0  0  0
  102.6010  142.2940  274.2870 C   0  0  0  0  0  0  0  0  0  0  0  0
  102.0490  141.7510  275.4720 O   0  0  0  0  0  0  0  0  0  0  0  0
   98.7430  134.4870  268.6920 N   0  0  0  0  0  0  0  0  0  0  0  0
  100.0000  134.1570  269.3680 C   0  0  2  0  0  0  0  0  0  0  0  0
  100.0390  134.6850  270.7980 C   0  0  0  0  0  0  0  0  0  0  0  0
   99.4300  135.7080  271.0960 O   0  0  0  0  0  0  0  0  0  0  0  0
  101.2000  134.6780  268.5700 C   0  0  0  0  0  0  0  0  0  0  0  0
  101.5890  133.7460  267.4390 C   0  0  0  0  0  0  0  0  0  0  0  0
  101.5810  134.1980  266.2780 O   0  0  0  0  0  0  0  0  0  0  0  0
  101.8820  132.5550  267.7080 O   0  0  0  0  0  0  0  0  0  0  0  0
  102.4330  136.1070  272.2850 N   0  0  0  0  0  0  0  0  0  0  0  0
  103.1340  137.3900  272.3190 C   0  0  2  0  0  0  0  0  0  0  0  0
  102.1540  138.5500  272.1860 C   0  0  0  0  0  0  0  0  0  0  0  0
  102.4500  139.6760  272.5770 O   0  0  0  0  0  0  0  0  0  0  0  0
  104.1710  137.4650  271.1970 C   0  0  0  0  0  0  0  0  0  0  0  0
  105.4550  136.7010  271.4650 C   0  0  0  0  0  0  0  0  0  0  0  0
  105.2880  135.1990  271.3610 C   0  0  0  0  0  0  0  0  0  0  0  0
  106.1490  134.4740  271.8920 O   0  0  0  0  0  0  0  0  0  0  0  0
  104.3030  134.7400  270.7480 O   0  0  0  0  0  0  0  0  0  0  0  0
  100.9870  138.2590  271.6200 N   0  0  0  0  0  0  0  0  0  0  0  0
   99.9460  139.2600  271.4090 C   0  0  2  0  0  0  0  0  0  0  0  0
   98.8990  139.1850  272.5120 C   0  0  0  0  0  0  0  0  0  0  0  0
   98.5410  140.1980  273.1180 O   0  0  0  0  0  0  0  0  0  0  0  0
   99.2410  139.0380  270.0490 C   0  0  2  0  0  0  0  0  0  0  0  0
  100.2150  139.2800  268.8930 C   0  0  0  0  0  0  0  0  0  0  0  0
   98.0390  139.9490  269.9180 C   0  0  0  0  0  0  0  0  0  0  0  0
   99.7790  138.6530  267.5780 C   0  0  0  0  0  0  0  0  0  0  0  0
  103.1740  140.4260  277.4390 N   0  0  0  0  0  0  0  0  0  0  0  0
  104.4590  139.7940  277.2480 C   0  0  2  0  0  0  0  0  0  0  0  0
  105.5500  140.8370  277.3800 C   0  0  0  0  0  0  0  0  0  0  0  0
  105.5990  141.7940  276.6080 O   0  0  0  0  0  0  0  0  0  0  0  0
  104.4850  139.1450  275.8680 C   0  0  0  0  0  0  0  0  0  0  0  0
  105.7940  138.5840  275.4420 C   0  0  0  0  0  0  0  0  0  0  0  0
  106.5380  137.6450  276.0930 C   0  0  0  0  0  0  0  0  0  0  0  0
  106.4990  138.8910  274.2330 C   0  0  0  0  0  0  0  0  0  0  0  0
  107.6750  137.3640  275.3740 N   0  0  0  0  0  0  0  0  0  0  0  0
  107.6740  138.1150  274.2270 C   0  0  0  0  0  0  0  0  0  0  0  0
  106.2540  139.7570  273.1580 C   0  0  0  0  0  0  0  0  0  0  0  0
  108.6070  138.1780  273.1900 C   0  0  0  0  0  0  0  0  0  0  0  0
  107.1820  139.8180  272.1270 C   0  0  0  0  0  0  0  0  0  0  0  0
  108.3440  139.0310  272.1510 C   0  0  0  0  0  0  0  0  0  0  0  0
  116.3090  135.6390  260.6950 N   0  0  0  0  0  0  0  0  0  0  0  0
  114.8950  135.2960  260.7980 C   0  0  2  0  0  0  0  0  0  0  0  0
  114.2020  136.1010  261.9020 C   0  0  0  0  0  0  0  0  0  0  0  0
  112.9860  136.3040  261.8640 O   0  0  0  0  0  0  0  0  0  0  0  0
  114.7040  133.7810  261.0470 C   0  0  0  0  0  0  0  0  0  0  0  0
  113.2270  133.4040  261.0070 C   0  0  0  0  0  0  0  0  0  0  0  0
  115.4830  132.9740  260.0210 C   0  0  0  0  0  0  0  0  0  0  0  0
  114.9810  136.5610  262.8780 N   0  0  0  0  0  0  0  0  0  0  0  0
  114.4420  137.3340  263.9970 C   0  0  0  0  0  0  0  0  0  0  0  0
  113.7060  136.4810  265.0160 C   0  0  0  0  0  0  0  0  0  0  0  0
  112.8050  136.9590  265.7070 O   0  0  0  0  0  0  0  0  0  0  0  0
  114.1010  135.2150  265.1110 N   0  0  0  0  0  0  0  0  0  0  0  0
  113.4440  134.2490  265.9860 C   0  0  2  0  0  0  0  0  0  0  0  0
  114.2450  134.0400  267.2730 C   0  0  0  0  0  0  0  0  0  0  0  0
  115.4410  133.7510  267.2290 O   0  0  0  0  0  0  0  0  0  0  0  0
  113.2760  132.9150  265.2490 C   0  0  0  0  0  0  0  0  0  0  0  0
  112.2220  131.9770  265.8280 C   0  0  0  0  0  0  0  0  0  0  0  0
  110.8840  132.0880  265.0930 C   0  0  0  0  0  0  0  0  0  0  0  0
  110.1150  133.3460  265.4790 C   0  0  0  0  0  0  0  0  0  0  0  0
  108.7850  133.4170  264.8060 N   0  0  0  0  0  0  0  0  0  0  0  0
   98.8600  150.0230  276.0760 N   0  0  0  0  0  0  0  0  0  0  0  0
   98.4490  150.0290  274.6860 C   0  0  2  0  0  0  0  0  0  0  0  0
   97.0430  149.4670  274.5810 C   0  0  0  0  0  0  0  0  0  0  0  0
   96.7270  148.4390  275.1900 O   0  0  0  0  0  0  0  0  0  0  0  0
   99.3930  149.1630  273.8560 C   0  0  0  0  0  0  0  0  0  0  0  0
  100.8690  149.5480  273.8650 C   0  0  0  0  0  0  0  0  0  0  0  0
  101.6830  148.4830  273.1650 C   0  0  0  0  0  0  0  0  0  0  0  0
  101.0730  150.9020  273.2070 C   0  0  0  0  0  0  0  0  0  0  0  0
   96.8980  145.7850  274.1120 N   0  0  0  0  0  0  0  0  0  0  0  0
   97.8100  145.4580  273.0280 C   0  0  0  0  0  0  0  0  0  0  0  0
   97.7170  146.4650  271.9070 C   0  0  0  0  0  0  0  0  0  0  0  0
   96.7060  147.1520  271.7670 O   0  0  0  0  0  0  0  0  0  0  0  0
   98.7830  146.5680  271.1180 N   0  0  0  0  0  0  0  0  0  0  0  0
   98.8040  147.4360  269.9490 C   0  0  0  0  0  0  0  0  0  0  0  0
   98.6240  146.6250  268.6820 C   0  0  0  0  0  0  0  0  0  0  0  0
   98.4350  145.4100  268.7440 O   0  0  0  0  0  0  0  0  0  0  0  0
   98.6690  147.2920  267.5330 N   0  0  0  0  0  0  0  0  0  0  0  0
   98.5630  146.6110  266.2410 C   0  0  0  0  0  0  0  0  0  0  0  0
   99.9270  146.2160  265.7040 C   0  0  0  0  0  0  0  0  0  0  0  0
  100.0350  145.5540  264.6700 O   0  0  0  0  0  0  0  0  0  0  0  0
  100.9760  146.6350  266.4080 N   0  0  0  0  0  0  0  0  0  0  0  0
  102.3440  146.3390  266.0000 C   0  0  2  0  0  0  0  0  0  0  0  0
  103.2190  146.0640  267.2160 C   0  0  0  0  0  0  0  0  0  0  0  0
  103.0110  146.6310  268.2960 O   0  0  0  0  0  0  0  0  0  0  0  0
  102.9330  147.4900  265.1720 C   0  0  0  0  0  0  0  0  0  0  0  0
  104.3450  147.1920  264.6830 C   0  0  0  0  0  0  0  0  0  0  0  0
  105.3080  147.8000  265.2060 O   0  0  0  0  0  0  0  0  0  0  0  0
  104.4970  146.3280  263.7920 O   0  0  0  0  0  0  0  0  0  0  0  0
  104.2050  145.1930  267.0320 N   0  0  0  0  0  0  0  0  0  0  0  0
  105.0930  144.8070  268.1180 C   0  0  2  0  0  0  0  0  0  0  0  0
  105.8600  145.9890  268.7100 C   0  0  0  0  0  0  0  0  0  0  0  0
  106.0600  146.0490  269.9210 O   0  0  0  0  0  0  0  0  0  0  0  0
  106.0610  143.7190  267.6530 C   0  0  0  0  0  0  0  0  0  0  0  0
  107.0890  143.3240  268.6970 C   0  0  0  0  0  0  0  0  0  0  0  0
  107.6630  141.6380  268.4750 S   0  0  0  0  0  0  0  0  0  0  0  0
  109.1690  141.6500  269.4500 C   0  0  0  0  0  0  0  0  0  0  0  0
  106.2700  146.9330  267.8640 N   0  0  0  0  0  0  0  0  0  0  0  0
  107.0960  148.0570  268.3160 C   0  0  2  0  0  0  0  0  0  0  0  0
  106.2920  149.2360  268.8640 C   0  0  0  0  0  0  0  0  0  0  0  0
  106.8310  150.3270  269.0420 O   0  0  0  0  0  0  0  0  0  0  0  0
  108.0190  148.5520  267.1950 C   0  0  0  0  0  0  0  0  0  0  0  0
  108.9570  147.5020  266.6380 C   0  0  0  0  0  0  0  0  0  0  0  0
  109.5020  146.6330  267.7410 C   0  0  0  0  0  0  0  0  0  0  0  0
  110.4910  145.6870  267.2440 N   0  0  0  0  0  0  0  0  0  0  0  0
  111.0330  144.7220  267.9780 C   0  0  0  0  0  0  0  0  0  0  0  0
  111.9280  143.9060  267.4400 N   0  0  0  0  0  0  0  0  0  0  0  0
  110.6780  144.5750  269.2490 N   0  0  0  0  0  0  0  0  0  0  0  0
  105.0100  149.0240  269.1350 N   0  0  0  0  0  0  0  0  0  0  0  0
  104.1850  150.0960  269.6770 C   0  0  2  0  0  0  0  0  0  0  0  0
  104.6810  150.5910  271.0350 C   0  0  0  0  0  0  0  0  0  0  0  0
  104.5620  151.7810  271.3380 O   0  0  0  0  0  0  0  0  0  0  0  0
  102.7150  149.6840  269.7440 C   0  0  0  0  0  0  0  0  0  0  0  0
  102.0290  149.7490  268.3870 C   0  0  0  0  0  0  0  0  0  0  0  0
  100.9350  149.1630  268.2410 O   0  0  0  0  0  0  0  0  0  0  0  0
  102.5810  150.3880  267.4660 O   0  0  0  0  0  0  0  0  0  0  0  0
  2  1  1  6
  3  2  1  0
  4  3  2  0
  5  2  1  0
  6  5  1  0
  7  3  1  0
  8  7  1  0
  9  8  1  0
 10  9  2  0
  8 11  1  1
 12 11  1  0
 14 13  1  6
 15 14  1  0
 16 15  2  0
 17 14  1  0
 18 17  1  0
 19 18  2  0
 20 18  1  0
 22 21  1  6
 23 22  1  0
 24 23  2  0
 25 22  1  0
 26 25  1  0
 27 26  1  0
 28 27  2  0
 29 27  1  0
 30 23  1  0
 31 30  1  1
 32 31  1  0
 33 32  2  0
 34 31  1  0
 35 34  1  0
 34 36  1  6
 37 35  1  0
 39 38  1  6
 40 39  1  0
 41 40  2  0
 42 39  1  0
 43 42  1  0
 44 43  2  0
 45 43  1  0
 46 44  1  0
 47 46  1  0
 47 45  2  0
 48 45  1  0
 49 47  1  0
 50 48  2  0
 51 50  1  0
 51 49  2  0
 53 52  1  1
 54 53  1  0
 55 54  2  0
 56 53  1  0
 57 56  1  0
 58 56  1  0
 59 54  1  0
 60 59  1  0
 61 60  1  0
 62 61  2  0
 63 61  1  0
 64 63  1  0
 65 64  1  0
 66 65  2  0
 64 67  1  6
 68 67  1  0
 69 68  1  0
 70 69  1  0
 71 70  1  0
 73 72  1  1
 74 73  1  0
 75 74  2  0
 76 73  1  0
 77 76  1  0
 78 77  1  0
 79 77  1  0
 81 80  1  0
 82 81  1  0
 83 82  2  0
 84 82  1  0
 85 84  1  0
 86 85  1  0
 87 86  2  0
 88 86  1  0
 89 88  1  0
 90 89  1  0
 91 90  2  0
 92 90  1  0
 93 92  1  0
 94 93  1  0
 95 94  2  0
 93 96  1  1
 97 96  1  0
 98 97  2  0
 99 97  1  0
100 94  1  0
101100  1  0
102101  1  0
103102  2  0
101104  1  6
105104  1  0
106105  1  0
107106  1  0
108102  1  0
109108  1  0
110109  1  0
111110  2  0
109112  1  6
113112  1  0
114113  1  0
115114  1  0
116115  1  0
117116  1  0
118116  2  0
119110  1  0
120119  1  0
121120  1  0
122121  2  0
120123  1  1
124123  1  0
125124  2  0
126124  1  0
M  END
$$$$
