
     RDKit          3D

 90 90  0  0  0  0  0  0  0  0999 V2000
  -10.6430  -29.1410   22.0850 N   0  0  0  0  0  0  0  0  0  0  0  0
   -9.6860  -28.0290   21.9990 C   0  0  2  0  0  0  0  0  0  0  0  0
   -8.2950  -28.4020   22.4970 C   0  0  0  0  0  0  0  0  0  0  0  0
   -8.1650  -29.1430   23.4700 O   0  0  0  0  0  0  0  0  0  0  0  0
  -10.2950  -26.9700   22.9180 C   0  0  0  0  0  0  0  0  0  0  0  0
  -11.2140  -27.7070   23.8080 C   0  0  0  0  0  0  0  0  0  0  0  0
  -11.7640  -28.8130   22.9830 C   0  0  0  0  0  0  0  0  0  0  0  0
   -7.2730  -27.8750   21.8280 N   0  0  0  0  0  0  0  0  0  0  0  0
   -5.8860  -28.2630   22.0640 C   0  0  2  0  0  0  0  0  0  0  0  0
   -5.2660  -27.5360   23.2590 C   0  0  0  0  0  0  0  0  0  0  0  0
   -5.0290  -26.3190   23.2270 O   0  0  0  0  0  0  0  0  0  0  0  0
   -5.0500  -28.0460   20.7980 C   0  0  0  0  0  0  0  0  0  0  0  0
   -3.5980  -28.5390   20.7960 C   0  0  0  0  0  0  0  0  0  0  0  0
   -3.5320  -30.0620   20.7720 C   0  0  0  0  0  0  0  0  0  0  0  0
   -2.8760  -27.9610   19.5990 C   0  0  0  0  0  0  0  0  0  0  0  0
   -4.9910  -28.3080   24.3040 N   0  0  0  0  0  0  0  0  0  0  0  0
   -4.4490  -27.7680   25.5440 C   0  0  2  0  0  0  0  0  0  0  0  0
   -2.9270  -27.8090   25.6020 C   0  0  0  0  0  0  0  0  0  0  0  0
   -2.3100  -27.0090   26.2950 O   0  0  0  0  0  0  0  0  0  0  0  0
   -5.0680  -28.4850   26.7420 C   0  0  0  0  0  0  0  0  0  0  0  0
   -6.5570  -28.2140   26.8790 C   0  0  0  0  0  0  0  0  0  0  0  0
   -6.9040  -26.4870   27.2390 S   0  0  0  0  0  0  0  0  0  0  0  0
   -8.5800  -26.2970   26.6460 C   0  0  0  0  0  0  0  0  0  0  0  0
    0.8030  -25.4900   24.1350 N   0  0  0  0  0  0  0  0  0  0  0  0
    0.2340  -24.1660   24.0390 C   0  0  2  0  0  0  0  0  0  0  0  0
    1.3570  -23.1490   24.1910 C   0  0  0  0  0  0  0  0  0  0  0  0
    2.1530  -23.2300   25.1300 O   0  0  0  0  0  0  0  0  0  0  0  0
   -0.8590  -23.9510   25.0930 C   0  0  0  0  0  0  0  0  0  0  0  0
   -1.8010  -22.7940   24.7510 C   0  0  0  0  0  0  0  0  0  0  0  0
   -3.1980  -22.5070   25.8570 S   0  0  0  0  0  0  0  0  0  0  0  0
   -4.2720  -23.8860   25.4830 C   0  0  0  0  0  0  0  0  0  0  0  0
   -0.6920  -17.7420   23.2460 N   0  0  0  0  0  0  0  0  0  0  0  0
   -1.9540  -18.4840   23.2680 C   0  0  2  0  0  0  0  0  0  0  0  0
   -2.4560  -18.6400   24.6990 C   0  0  0  0  0  0  0  0  0  0  0  0
   -3.6600  -18.5420   24.9530 O   0  0  0  0  0  0  0  0  0  0  0  0
   -1.7900  -19.8720   22.6200 C   0  0  0  0  0  0  0  0  0  0  0  0
   -1.6460  -19.8510   21.1090 C   0  0  0  0  0  0  0  0  0  0  0  0
   -1.0920  -21.1410   20.5190 C   0  0  0  0  0  0  0  0  0  0  0  0
   -0.9800  -22.1570   21.2410 O   0  0  0  0  0  0  0  0  0  0  0  0
   -0.7680  -21.1300   19.3110 O   0  0  0  0  0  0  0  0  0  0  0  0
   -1.5290  -18.8930   25.6250 N   0  0  0  0  0  0  0  0  0  0  0  0
   -1.8650  -19.0560   27.0480 C   0  0  2  0  0  0  0  0  0  0  0  0
   -2.3200  -17.7450   27.6580 C   0  0  0  0  0  0  0  0  0  0  0  0
   -3.3060  -17.7170   28.3950 O   0  0  0  0  0  0  0  0  0  0  0  0
   -0.6800  -19.5960   27.8560 C   0  0  0  0  0  0  0  0  0  0  0  0
   -0.4900  -21.0780   27.7660 C   0  0  0  0  0  0  0  0  0  0  0  0
    0.6230  -21.7520   29.0030 S   0  0  0  0  0  0  0  0  0  0  0  0
    2.1930  -20.9790   28.5820 C   0  0  0  0  0  0  0  0  0  0  0  0
   -3.6370  -15.3200   25.9900 N   0  0  0  0  0  0  0  0  0  0  0  0
   -4.9650  -15.0680   25.4160 C   0  0  2  0  0  0  0  0  0  0  0  0
   -6.0500  -15.9340   26.0440 C   0  0  0  0  0  0  0  0  0  0  0  0
   -7.1580  -15.4660   26.2940 O   0  0  0  0  0  0  0  0  0  0  0  0
   -4.9670  -15.2500   23.9030 C   0  0  0  0  0  0  0  0  0  0  0  0
   -6.1490  -14.6250   23.2310 C   0  0  0  0  0  0  0  0  0  0  0  0
   -7.3050  -15.3220   22.9560 N   0  0  0  0  0  0  0  0  0  0  0  0
   -6.3580  -13.3620   22.7910 C   0  0  0  0  0  0  0  0  0  0  0  0
   -8.1710  -14.5190   22.3650 C   0  0  0  0  0  0  0  0  0  0  0  0
   -7.6220  -13.3230   22.2600 N   0  0  0  0  0  0  0  0  0  0  0  0
   -5.7290  -17.2030   26.2790 N   0  0  0  0  0  0  0  0  0  0  0  0
   -6.6570  -18.1500   26.8900 C   0  0  2  0  0  0  0  0  0  0  0  0
   -7.1040  -17.7120   28.2980 C   0  0  0  0  0  0  0  0  0  0  0  0
   -8.2770  -17.8870   28.6820 O   0  0  0  0  0  0  0  0  0  0  0  0
   -5.9960  -19.5270   26.9510 C   0  0  0  0  0  0  0  0  0  0  0  0
   -6.9350  -20.6410   27.2600 C   0  0  0  0  0  0  0  0  0  0  0  0
   -8.0010  -20.9250   26.4230 C   0  0  0  0  0  0  0  0  0  0  0  0
   -6.7490  -21.4160   28.3860 C   0  0  0  0  0  0  0  0  0  0  0  0
   -8.8750  -21.9590   26.7200 C   0  0  0  0  0  0  0  0  0  0  0  0
   -7.6040  -22.4570   28.6740 C   0  0  0  0  0  0  0  0  0  0  0  0
   -8.6700  -22.7280   27.8440 C   0  0  0  0  0  0  0  0  0  0  0  0
   -6.1620  -17.1550   29.0630 N   0  0  0  0  0  0  0  0  0  0  0  0
   -6.4270  -16.7230   30.4330 C   0  0  2  0  0  0  0  0  0  0  0  0
   -6.5000  -15.2090   30.5800 C   0  0  0  0  0  0  0  0  0  0  0  0
   -6.2650  -14.6820   31.6710 O   0  0  0  0  0  0  0  0  0  0  0  0
   -5.3410  -17.2610   31.3610 C   0  0  0  0  0  0  0  0  0  0  0  0
   -5.3000  -18.7650   31.4570 C   0  0  0  0  0  0  0  0  0  0  0  0
   -6.3400  -19.4640   32.0730 C   0  0  0  0  0  0  0  0  0  0  0  0
   -4.2060  -19.4880   30.9640 C   0  0  0  0  0  0  0  0  0  0  0  0
   -6.3120  -20.8360   32.1770 C   0  0  0  0  0  0  0  0  0  0  0  0
   -4.1650  -20.8740   31.0710 C   0  0  0  0  0  0  0  0  0  0  0  0
   -5.2330  -21.5420   31.6850 C   0  0  0  0  0  0  0  0  0  0  0  0
   -5.2330  -22.9160   31.8100 O   0  0  0  0  0  0  0  0  0  0  0  0
   -6.8500  -14.5290   29.4900 N   0  0  0  0  0  0  0  0  0  0  0  0
   -6.8230  -13.0690   29.3930 C   0  0  2  0  0  0  0  0  0  0  0  0
   -7.7620  -12.3150   30.3360 C   0  0  0  0  0  0  0  0  0  0  0  0
   -7.5320  -11.1340   30.6330 O   0  0  0  0  0  0  0  0  0  0  0  0
   -7.0760  -12.6290   27.9450 C   0  0  0  0  0  0  0  0  0  0  0  0
   -8.4810  -12.9050   27.4380 C   0  0  0  0  0  0  0  0  0  0  0  0
   -8.6750  -12.4880   25.9890 C   0  0  0  0  0  0  0  0  0  0  0  0
   -8.1640  -11.0880   25.7270 C   0  0  0  0  0  0  0  0  0  0  0  0
   -9.1860  -10.2780   25.0540 N   0  0  0  0  0  0  0  0  0  0  0  0
  2  1  1  0
  2  3  1  1
  4  3  2  0
  5  2  1  0
  6  5  1  0
  7  6  1  0
  7  1  1  0
  8  3  1  0
  9  8  1  0
 10  9  1  0
 11 10  2  0
  9 12  1  6
 13 12  1  0
 14 13  1  0
 15 13  1  0
 16 10  1  0
 17 16  1  0
 18 17  1  0
 19 18  2  0
 17 20  1  1
 21 20  1  0
 22 21  1  0
 23 22  1  0
 25 24  1  1
 26 25  1  0
 27 26  2  0
 28 25  1  0
 29 28  1  0
 30 29  1  0
 31 30  1  0
 33 32  1  1
 34 33  1  0
 35 34  2  0
 36 33  1  0
 37 36  1  0
 38 37  1  0
 39 38  2  0
 40 38  1  0
 41 34  1  0
 42 41  1  0
 43 42  1  0
 44 43  2  0
 42 45  1  1
 46 45  1  0
 47 46  1  0
 48 47  1  0
 50 49  1  1
 51 50  1  0
 52 51  2  0
 53 50  1  0
 54 53  1  0
 55 54  1  0
 56 54  2  0
 57 55  2  0
 58 57  1  0
 58 56  1  0
 59 51  1  0
 60 59  1  0
 61 60  1  0
 62 61  2  0
 60 63  1  1
 64 63  1  0
 65 64  2  0
 66 64  1  0
 67 65  1  0
 68 66  2  0
 69 67  2  0
 69 68  1  0
 70 61  1  0
 71 70  1  0
 72 71  1  0
 73 72  2  0
 71 74  1  1
 75 74  1  0
 76 75  2  0
 77 75  1  0
 78 76  1  0
 79 77  2  0
 80 78  2  0
 80 79  1  0
 81 80  1  0
 82 72  1  0
 83 82  1  0
 84 83  1  0
 85 84  2  0
 83 86  1  6
 87 86  1  0
 88 87  1  0
 89 88  1  0
 90 89  1  0
M  END
$$$$
