
     RDKit          3D

154149  0  0  0  0  0  0  0  0999 V2000
   -4.9910  -28.3080   24.3040 N   0  0  0  0  0  0  0  0  0  0  0  0
   -4.4490  -27.7680   25.5440 C   0  0  2  0  0  0  0  0  0  0  0  0
   -2.9270  -27.8090   25.6020 C   0  0  0  0  0  0  0  0  0  0  0  0
   -2.3100  -27.0090   26.2950 O   0  0  0  0  0  0  0  0  0  0  0  0
   -5.0680  -28.4850   26.7420 C   0  0  0  0  0  0  0  0  0  0  0  0
   -6.5570  -28.2140   26.8790 C   0  0  0  0  0  0  0  0  0  0  0  0
   -6.9040  -26.4870   27.2390 S   0  0  0  0  0  0  0  0  0  0  0  0
   -8.5800  -26.2970   26.6460 C   0  0  0  0  0  0  0  0  0  0  0  0
   -5.7290  -17.2030   26.2790 N   0  0  0  0  0  0  0  0  0  0  0  0
   -6.6570  -18.1500   26.8900 C   0  0  2  0  0  0  0  0  0  0  0  0
   -7.1040  -17.7120   28.2980 C   0  0  0  0  0  0  0  0  0  0  0  0
   -8.2770  -17.8870   28.6820 O   0  0  0  0  0  0  0  0  0  0  0  0
   -5.9960  -19.5270   26.9510 C   0  0  0  0  0  0  0  0  0  0  0  0
   -6.9350  -20.6410   27.2600 C   0  0  0  0  0  0  0  0  0  0  0  0
   -8.0010  -20.9250   26.4230 C   0  0  0  0  0  0  0  0  0  0  0  0
   -6.7490  -21.4160   28.3860 C   0  0  0  0  0  0  0  0  0  0  0  0
   -8.8750  -21.9590   26.7200 C   0  0  0  0  0  0  0  0  0  0  0  0
   -7.6040  -22.4570   28.6740 C   0  0  0  0  0  0  0  0  0  0  0  0
   -8.6700  -22.7280   27.8440 C   0  0  0  0  0  0  0  0  0  0  0  0
   -6.1620  -17.1550   29.0630 N   0  0  0  0  0  0  0  0  0  0  0  0
   -6.4270  -16.7230   30.4330 C   0  0  2  0  0  0  0  0  0  0  0  0
   -6.5000  -15.2090   30.5800 C   0  0  0  0  0  0  0  0  0  0  0  0
   -6.2650  -14.6820   31.6710 O   0  0  0  0  0  0  0  0  0  0  0  0
   -5.3410  -17.2610   31.3610 C   0  0  0  0  0  0  0  0  0  0  0  0
   -5.3000  -18.7650   31.4570 C   0  0  0  0  0  0  0  0  0  0  0  0
   -6.3400  -19.4640   32.0730 C   0  0  0  0  0  0  0  0  0  0  0  0
   -4.2060  -19.4880   30.9640 C   0  0  0  0  0  0  0  0  0  0  0  0
   -6.3120  -20.8360   32.1770 C   0  0  0  0  0  0  0  0  0  0  0  0
   -4.1650  -20.8740   31.0710 C   0  0  0  0  0  0  0  0  0  0  0  0
   -5.2330  -21.5420   31.6850 C   0  0  0  0  0  0  0  0  0  0  0  0
   -5.2330  -22.9160   31.8100 O   0  0  0  0  0  0  0  0  0  0  0  0
   -8.8270  -12.9730   30.7850 N   0  0  0  0  0  0  0  0  0  0  0  0
   -9.7900  -12.3230   31.6880 C   0  0  2  0  0  0  0  0  0  0  0  0
   -9.5530  -12.6970   33.1620 C   0  0  0  0  0  0  0  0  0  0  0  0
  -10.3830  -12.4400   34.0270 O   0  0  0  0  0  0  0  0  0  0  0  0
  -11.2250  -12.5950   31.2340 C   0  0  0  0  0  0  0  0  0  0  0  0
  -11.5860  -11.8250   29.9720 C   0  0  0  0  0  0  0  0  0  0  0  0
  -11.3800  -10.5850   29.9320 O   0  0  0  0  0  0  0  0  0  0  0  0
  -12.0780  -12.4550   29.0090 O   0  0  0  0  0  0  0  0  0  0  0  0
   -8.4010  -13.3090   33.4170 N   0  0  0  0  0  0  0  0  0  0  0  0
   -7.9530  -13.6600   34.7570 C   0  0  2  0  0  0  0  0  0  0  0  0
   -6.6960  -12.8410   35.0570 C   0  0  0  0  0  0  0  0  0  0  0  0
   -5.6000  -13.2110   34.6330 O   0  0  0  0  0  0  0  0  0  0  0  0
   -7.6660  -15.1670   34.8360 C   0  0  0  0  0  0  0  0  0  0  0  0
   -7.5220  -15.6610   36.2670 C   0  0  0  0  0  0  0  0  0  0  0  0
   -6.7470  -15.1180   37.0530 O   0  0  0  0  0  0  0  0  0  0  0  0
   -8.2750  -16.6950   36.6100 N   0  0  0  0  0  0  0  0  0  0  0  0
   -3.6580  -14.8760   36.6130 N   0  0  0  0  0  0  0  0  0  0  0  0
   -3.0480  -15.8760   35.7290 C   0  0  2  0  0  0  0  0  0  0  0  0
   -2.4490  -15.2700   34.4550 C   0  0  0  0  0  0  0  0  0  0  0  0
   -1.3980  -15.7180   33.9900 O   0  0  0  0  0  0  0  0  0  0  0  0
   -4.0480  -17.0210   35.3940 C   0  0  0  0  0  0  0  0  0  0  0  0
   -3.4510  -18.0080   34.4060 C   0  0  0  0  0  0  0  0  0  0  0  0
   -4.4710  -17.7470   36.6800 C   0  0  0  0  0  0  0  0  0  0  0  0
    0.4850  -23.5790   35.9370 N   0  0  0  0  0  0  0  0  0  0  0  0
   -0.9200  -23.3540   36.2590 C   0  0  2  0  0  0  0  0  0  0  0  0
   -1.8680  -23.8870   35.1760 C   0  0  0  0  0  0  0  0  0  0  0  0
   -2.9210  -24.4360   35.4970 O   0  0  0  0  0  0  0  0  0  0  0  0
   -1.1900  -21.8780   36.5650 C   0  0  0  0  0  0  0  0  0  0  0  0
   -0.5460  -21.3770   37.8700 C   0  0  0  0  0  0  0  0  0  0  0  0
   -0.6920  -22.3540   39.0730 C   0  0  0  0  0  0  0  0  0  0  0  0
    0.0650  -21.8830   40.2330 N   0  0  0  0  0  0  0  0  0  0  0  0
    1.3350  -22.2040   40.5040 C   0  0  0  0  0  0  0  0  0  0  0  0
    2.0240  -23.0250   39.7080 N   0  0  0  0  0  0  0  0  0  0  0  0
    1.9220  -21.7040   41.5900 N   0  0  0  0  0  0  0  0  0  0  0  0
   -1.4820  -23.7310   33.9090 N   0  0  0  0  0  0  0  0  0  0  0  0
   -2.2150  -24.3100   32.7880 C   0  0  2  0  0  0  0  0  0  0  0  0
   -2.2860  -25.8410   32.8590 C   0  0  0  0  0  0  0  0  0  0  0  0
   -3.3680  -26.4250   32.8060 O   0  0  0  0  0  0  0  0  0  0  0  0
   -1.5930  -23.8750   31.4540 C   0  0  0  0  0  0  0  0  0  0  0  0
   -2.3150  -24.4040   30.2520 C   0  0  0  0  0  0  0  0  0  0  0  0
   -3.6720  -24.2550   30.0760 N   0  0  0  0  0  0  0  0  0  0  0  0
   -1.8660  -25.0680   29.1630 C   0  0  0  0  0  0  0  0  0  0  0  0
   -4.0320  -24.8180   28.9380 C   0  0  0  0  0  0  0  0  0  0  0  0
   -2.9540  -25.3140   28.3620 N   0  0  0  0  0  0  0  0  0  0  0  0
   -1.8520  -27.6090   35.4550 N   0  0  0  0  0  0  0  0  0  0  0  0
   -2.6020  -27.9130   36.6700 C   0  0  0  0  0  0  0  0  0  0  0  0
   -4.1020  -27.7580   36.5190 C   0  0  0  0  0  0  0  0  0  0  0  0
   -4.8560  -28.1110   37.4260 O   0  0  0  0  0  0  0  0  0  0  0  0
   -4.5360  -27.2310   35.3730 N   0  0  0  0  0  0  0  0  0  0  0  0
   -5.9610  -27.0850   35.0590 C   0  0  2  0  0  0  0  0  0  0  0  0
   -6.5720  -28.3010   34.3850 C   0  0  0  0  0  0  0  0  0  0  0  0
   -7.7900  -28.4390   34.3170 O   0  0  0  0  0  0  0  0  0  0  0  0
   -6.2180  -25.8180   34.2380 C   0  0  0  0  0  0  0  0  0  0  0  0
   -6.4550  -24.6030   35.1110 C   0  0  0  0  0  0  0  0  0  0  0  0
   -6.9090  -24.7280   36.2500 O   0  0  0  0  0  0  0  0  0  0  0  0
   -6.1490  -23.4190   34.5870 N   0  0  0  0  0  0  0  0  0  0  0  0
   -5.7140  -29.1850   33.8920 N   0  0  0  0  0  0  0  0  0  0  0  0
   -6.1540  -30.4590   33.3290 C   0  0  2  0  0  0  0  0  0  0  0  0
   -6.6840  -31.3440   34.4380 C   0  0  0  0  0  0  0  0  0  0  0  0
   -6.0570  -31.4670   35.4920 O   0  0  0  0  0  0  0  0  0  0  0  0
   -4.9940  -31.1670   32.6300 C   0  0  0  0  0  0  0  0  0  0  0  0
   -4.2680  -30.3050   31.6250 C   0  0  0  0  0  0  0  0  0  0  0  0
   -5.3900  -29.7770   30.3230 S   0  0  0  0  0  0  0  0  0  0  0  0
   -5.0870  -28.0110   30.3670 C   0  0  0  0  0  0  0  0  0  0  0  0
   -7.8440  -31.9430   34.1950 N   0  0  0  0  0  0  0  0  0  0  0  0
   -8.4220  -32.9280   35.0970 C   0  0  2  0  0  0  0  0  0  0  0  0
   -7.9550  -34.3240   34.6660 C   0  0  0  0  0  0  0  0  0  0  0  0
   -8.0950  -34.6810   33.4930 O   0  0  0  0  0  0  0  0  0  0  0  0
   -9.9730  -32.8340   35.1180 C   0  0  2  0  0  0  0  0  0  0  0  0
  -10.4060  -31.5260   35.7900 C   0  0  0  0  0  0  0  0  0  0  0  0
  -10.5900  -34.0500   35.8180 C   0  0  0  0  0  0  0  0  0  0  0  0
  -11.9080  -31.2640   35.7800 C   0  0  0  0  0  0  0  0  0  0  0  0
   -7.3720  -35.1040   35.6050 N   0  0  0  0  0  0  0  0  0  0  0  0
   -6.8750  -36.4450   35.2880 C   0  0  2  0  0  0  0  0  0  0  0  0
   -7.9560  -37.5230   35.2310 C   0  0  0  0  0  0  0  0  0  0  0  0
   -8.6620  -37.7620   36.2220 O   0  0  0  0  0  0  0  0  0  0  0  0
   -5.9010  -36.7310   36.4360 C   0  0  0  0  0  0  0  0  0  0  0  0
   -6.4500  -35.9620   37.5820 C   0  0  0  0  0  0  0  0  0  0  0  0
   -7.1140  -34.7430   37.0140 C   0  0  0  0  0  0  0  0  0  0  0  0
  -10.8630  -37.9510   34.1300 N   0  0  0  0  0  0  0  0  0  0  0  0
  -12.2430  -37.5660   34.4720 C   0  0  2  0  0  0  0  0  0  0  0  0
  -12.5630  -37.6660   35.9650 C   0  0  0  0  0  0  0  0  0  0  0  0
  -13.7180  -37.8850   36.3530 O   0  0  0  0  0  0  0  0  0  0  0  0
  -13.2710  -38.3540   33.6360 C   0  0  0  0  0  0  0  0  0  0  0  0
  -13.0360  -38.2140   32.1410 C   0  0  0  0  0  0  0  0  0  0  0  0
  -13.1610  -37.1210   31.5680 O   0  0  0  0  0  0  0  0  0  0  0  0
  -12.6890  -39.3260   31.4990 N   0  0  0  0  0  0  0  0  0  0  0  0
  -12.7510  -35.3780   38.8300 N   0  0  0  0  0  0  0  0  0  0  0  0
  -12.8750  -33.9790   39.2680 C   0  0  2  0  0  0  0  0  0  0  0  0
  -12.5490  -33.7320   40.7480 C   0  0  0  0  0  0  0  0  0  0  0  0
  -12.2800  -32.5940   41.1460 O   0  0  0  0  0  0  0  0  0  0  0  0
  -14.2710  -33.4210   38.9350 C   0  0  0  0  0  0  0  0  0  0  0  0
  -15.2920  -34.4310   38.3810 C   0  0  0  0  0  0  0  0  0  0  0  0
  -15.5250  -35.6190   39.3040 C   0  0  0  0  0  0  0  0  0  0  0  0
  -16.0930  -36.8000   38.5370 C   0  0  0  0  0  0  0  0  0  0  0  0
  -15.9920  -38.0630   39.3240 N   0  0  0  0  0  0  0  0  0  0  0  0
   -9.9600  -35.0290   42.1850 N   0  0  0  0  0  0  0  0  0  0  0  0
   -8.5570  -35.4340   42.2830 C   0  0  2  0  0  0  0  0  0  0  0  0
   -7.6070  -34.2560   42.4280 C   0  0  0  0  0  0  0  0  0  0  0  0
   -7.6810  -33.2950   41.6650 O   0  0  0  0  0  0  0  0  0  0  0  0
   -8.1630  -36.2620   41.0560 C   0  0  0  0  0  0  0  0  0  0  0  0
   -6.8170  -36.6750   41.1210 O   0  0  0  0  0  0  0  0  0  0  0  0
   -4.5510  -34.6280   41.8440 N   0  0  0  0  0  0  0  0  0  0  0  0
   -3.4790  -34.9810   40.9250 C   0  0  2  0  0  0  0  0  0  0  0  0
   -3.4190  -33.9640   39.8040 C   0  0  0  0  0  0  0  0  0  0  0  0
   -4.4010  -33.7650   39.0820 O   0  0  0  0  0  0  0  0  0  0  0  0
   -3.6870  -36.3920   40.3600 C   0  0  0  0  0  0  0  0  0  0  0  0
   -2.5140  -36.9210   39.5510 C   0  0  0  0  0  0  0  0  0  0  0  0
   -1.6550  -37.8750   40.0890 C   0  0  0  0  0  0  0  0  0  0  0  0
   -2.2650  -36.4580   38.2450 C   0  0  0  0  0  0  0  0  0  0  0  0
   -0.5830  -38.3650   39.3530 C   0  0  0  0  0  0  0  0  0  0  0  0
   -1.1950  -36.9290   37.5070 C   0  0  0  0  0  0  0  0  0  0  0  0
   -0.3570  -37.8910   38.0650 C   0  0  0  0  0  0  0  0  0  0  0  0
    0.7050  -38.3820   37.3410 O   0  0  0  0  0  0  0  0  0  0  0  0
   -2.2680  -33.3140   39.6840 N   0  0  0  0  0  0  0  0  0  0  0  0
   -2.0060  -32.3880   38.5860 C   0  0  2  0  0  0  0  0  0  0  0  0
   -0.7670  -32.8160   37.8310 C   0  0  0  0  0  0  0  0  0  0  0  0
    0.2700  -33.0850   38.4330 O   0  0  0  0  0  0  0  0  0  0  0  0
   -1.8510  -30.9550   39.0920 C   0  0  0  0  0  0  0  0  0  0  0  0
   -3.1390  -30.3590   39.6250 C   0  0  0  0  0  0  0  0  0  0  0  0
   -2.8610  -29.1770   40.5080 C   0  0  0  0  0  0  0  0  0  0  0  0
   -4.1510  -28.5850   41.0490 C   0  0  0  0  0  0  0  0  0  0  0  0
   -3.8990  -27.2580   41.7060 N   0  0  0  0  0  0  0  0  0  0  0  0
  2  1  1  6
  3  2  1  0
  4  3  2  0
  5  2  1  0
  6  5  1  0
  7  6  1  0
  8  7  1  0
 10  9  1  1
 11 10  1  0
 12 11  2  0
 13 10  1  0
 14 13  1  0
 15 14  2  0
 16 14  1  0
 17 15  1  0
 18 16  2  0
 19 17  2  0
 19 18  1  0
 20 11  1  0
 21 20  1  0
 22 21  1  0
 23 22  2  0
 21 24  1  1
 25 24  1  0
 26 25  2  0
 27 25  1  0
 28 26  1  0
 29 27  2  0
 30 28  2  0
 30 29  1  0
 31 30  1  0
 33 32  1  6
 34 33  1  0
 35 34  2  0
 36 33  1  0
 37 36  1  0
 38 37  2  0
 39 37  1  0
 40 34  1  0
 41 40  1  0
 42 41  1  0
 43 42  2  0
 41 44  1  6
 45 44  1  0
 46 45  2  0
 47 45  1  0
 49 48  1  6
 50 49  1  0
 51 50  2  0
 52 49  1  0
 53 52  1  0
 54 52  1  0
 56 55  1  6
 57 56  1  0
 58 57  2  0
 59 56  1  0
 60 59  1  0
 61 60  1  0
 62 61  1  0
 63 62  1  0
 64 63  1  0
 65 63  2  0
 66 57  1  0
 67 66  1  0
 68 67  1  0
 69 68  2  0
 67 70  1  6
 71 70  1  0
 72 71  1  0
 73 71  2  0
 74 72  2  0
 75 74  1  0
 75 73  1  0
 77 76  1  0
 78 77  1  0
 79 78  2  0
 80 78  1  0
 81 80  1  0
 82 81  1  0
 83 82  2  0
 81 84  1  6
 85 84  1  0
 86 85  2  0
 87 85  1  0
 88 82  1  0
 89 88  1  0
 90 89  1  0
 91 90  2  0
 89 92  1  1
 93 92  1  0
 94 93  1  0
 95 94  1  0
 96 90  1  0
 97 96  1  6
 98 97  1  0
 99 98  2  0
100 97  1  0
101100  1  0
100102  1  1
103101  1  0
104 98  1  0
105104  1  0
105106  1  1
107106  2  0
108105  1  0
109108  1  0
110109  1  0
110104  1  0
112111  1  1
113112  1  0
114113  2  0
115112  1  0
116115  1  0
117116  2  0
118116  1  0
120119  1  1
121120  1  0
122121  2  0
123120  1  0
124123  1  0
125124  1  0
126125  1  0
127126  1  0
129128  1  6
130129  1  0
131130  2  0
132129  1  0
133132  1  0
135134  1  1
136135  1  0
137136  2  0
138135  1  0
139138  1  0
140139  2  0
141139  1  0
142140  1  0
143141  2  0
144142  2  0
144143  1  0
145144  1  0
146136  1  0
147146  1  0
148147  1  0
149148  2  0
147150  1  1
151150  1  0
152151  1  0
153152  1  0
154153  1  0
M  END
$$$$
