
     RDKit          3D

 90 90  0  0  0  0  0  0  0  0999 V2000
  -11.0990  -11.1430   25.0470 N   0  0  0  0  0  0  0  0  0  0  0  0
  -10.1680   -9.9970   24.9350 C   0  0  2  0  0  0  0  0  0  0  0  0
   -8.7210  -10.3360   25.3130 C   0  0  0  0  0  0  0  0  0  0  0  0
   -8.5010  -11.1270   26.2210 O   0  0  0  0  0  0  0  0  0  0  0  0
  -10.7510   -8.9630   25.9110 C   0  0  0  0  0  0  0  0  0  0  0  0
  -11.5730   -9.7380   26.8600 C   0  0  0  0  0  0  0  0  0  0  0  0
  -12.1190  -10.9130   26.0850 C   0  0  0  0  0  0  0  0  0  0  0  0
   -7.7600   -9.7400   24.6080 N   0  0  0  0  0  0  0  0  0  0  0  0
   -6.3420  -10.0660   24.7700 C   0  0  2  0  0  0  0  0  0  0  0  0
   -5.6700   -9.2980   25.9070 C   0  0  0  0  0  0  0  0  0  0  0  0
   -5.3880   -8.1080   25.7730 O   0  0  0  0  0  0  0  0  0  0  0  0
   -5.5840   -9.8270   23.4570 C   0  0  0  0  0  0  0  0  0  0  0  0
   -4.1460  -10.3480   23.3920 C   0  0  0  0  0  0  0  0  0  0  0  0
   -4.1300  -11.8390   23.1270 C   0  0  0  0  0  0  0  0  0  0  0  0
   -3.3630   -9.6020   22.3270 C   0  0  0  0  0  0  0  0  0  0  0  0
   -5.3920   -9.9960   27.0070 N   0  0  0  0  0  0  0  0  0  0  0  0
   -4.8100   -9.3790   28.1960 C   0  0  2  0  0  0  0  0  0  0  0  0
   -3.2870   -9.4780   28.2300 C   0  0  0  0  0  0  0  0  0  0  0  0
   -2.6310   -8.7430   28.9720 O   0  0  0  0  0  0  0  0  0  0  0  0
   -5.4080   -9.9800   29.4740 C   0  0  0  0  0  0  0  0  0  0  0  0
   -6.9060   -9.7630   29.6290 C   0  0  0  0  0  0  0  0  0  0  0  0
   -7.3660   -8.0370   29.8390 S   0  0  0  0  0  0  0  0  0  0  0  0
   -9.1370   -8.1410   29.7410 C   0  0  0  0  0  0  0  0  0  0  0  0
    0.5900   -7.2030   26.6340 N   0  0  0  0  0  0  0  0  0  0  0  0
    0.0150   -5.8650   26.5720 C   0  0  2  0  0  0  0  0  0  0  0  0
    1.1250   -4.8470   26.8210 C   0  0  0  0  0  0  0  0  0  0  0  0
    1.8880   -4.9960   27.7670 O   0  0  0  0  0  0  0  0  0  0  0  0
   -1.0990   -5.7260   27.6110 C   0  0  0  0  0  0  0  0  0  0  0  0
   -2.0200   -4.5450   27.3930 C   0  0  0  0  0  0  0  0  0  0  0  0
   -3.4640   -4.5020   28.4820 S   0  0  0  0  0  0  0  0  0  0  0  0
   -4.5300   -5.7410   27.7740 C   0  0  0  0  0  0  0  0  0  0  0  0
   -0.8470    0.5290   26.2410 N   0  0  0  0  0  0  0  0  0  0  0  0
   -2.1240   -0.1820   26.1470 C   0  0  2  0  0  0  0  0  0  0  0  0
   -2.6800   -0.3770   27.5490 C   0  0  0  0  0  0  0  0  0  0  0  0
   -3.8730   -0.2080   27.7730 O   0  0  0  0  0  0  0  0  0  0  0  0
   -1.9650   -1.5250   25.4160 C   0  0  0  0  0  0  0  0  0  0  0  0
   -1.7060   -1.3890   23.9220 C   0  0  0  0  0  0  0  0  0  0  0  0
   -1.1630   -2.6520   23.2660 C   0  0  0  0  0  0  0  0  0  0  0  0
   -0.9720   -3.6800   23.9520 O   0  0  0  0  0  0  0  0  0  0  0  0
   -0.9330   -2.6150   22.0410 O   0  0  0  0  0  0  0  0  0  0  0  0
   -1.7980   -0.7070   28.4910 N   0  0  0  0  0  0  0  0  0  0  0  0
   -2.1700   -0.8460   29.9060 C   0  0  2  0  0  0  0  0  0  0  0  0
   -2.6160    0.4760   30.5350 C   0  0  0  0  0  0  0  0  0  0  0  0
   -3.6560    0.5320   31.1900 O   0  0  0  0  0  0  0  0  0  0  0  0
   -1.0220   -1.4540   30.7140 C   0  0  0  0  0  0  0  0  0  0  0  0
   -0.8250   -2.9270   30.4760 C   0  0  0  0  0  0  0  0  0  0  0  0
    0.2500   -3.7050   31.6810 S   0  0  0  0  0  0  0  0  0  0  0  0
    1.7910   -2.7860   31.4560 C   0  0  0  0  0  0  0  0  0  0  0  0
   -3.8270    3.0310   28.9130 N   0  0  0  0  0  0  0  0  0  0  0  0
   -5.1420    3.2820   28.3040 C   0  0  2  0  0  0  0  0  0  0  0  0
   -6.2560    2.4020   28.8720 C   0  0  0  0  0  0  0  0  0  0  0  0
   -7.3670    2.8740   29.1350 O   0  0  0  0  0  0  0  0  0  0  0  0
   -5.0980    3.1240   26.7860 C   0  0  0  0  0  0  0  0  0  0  0  0
   -6.3240    3.6450   26.0960 C   0  0  0  0  0  0  0  0  0  0  0  0
   -7.3910    2.8410   25.7660 N   0  0  0  0  0  0  0  0  0  0  0  0
   -6.6590    4.8950   25.6970 C   0  0  0  0  0  0  0  0  0  0  0  0
   -8.3280    3.5690   25.1840 C   0  0  0  0  0  0  0  0  0  0  0  0
   -7.9090    4.8200   25.1310 N   0  0  0  0  0  0  0  0  0  0  0  0
   -5.9590    1.1190   29.0340 N   0  0  0  0  0  0  0  0  0  0  0  0
   -6.8960    0.1480   29.5960 C   0  0  2  0  0  0  0  0  0  0  0  0
   -7.3960    0.5690   30.9860 C   0  0  0  0  0  0  0  0  0  0  0  0
   -8.5800    0.4140   31.2980 O   0  0  0  0  0  0  0  0  0  0  0  0
   -6.2310   -1.2370   29.6580 C   0  0  0  0  0  0  0  0  0  0  0  0
   -7.1630   -2.3440   30.0700 C   0  0  0  0  0  0  0  0  0  0  0  0
   -8.2490   -2.6940   29.2730 C   0  0  0  0  0  0  0  0  0  0  0  0
   -6.9470   -3.0440   31.2500 C   0  0  0  0  0  0  0  0  0  0  0  0
   -9.1170   -3.7060   29.6600 C   0  0  0  0  0  0  0  0  0  0  0  0
   -7.8050   -4.0670   31.6370 C   0  0  0  0  0  0  0  0  0  0  0  0
   -8.8960   -4.3930   30.8460 C   0  0  0  0  0  0  0  0  0  0  0  0
   -6.4890    1.1060   31.8040 N   0  0  0  0  0  0  0  0  0  0  0  0
   -6.8040    1.5140   33.1760 C   0  0  2  0  0  0  0  0  0  0  0  0
   -6.9560    3.0330   33.3560 C   0  0  0  0  0  0  0  0  0  0  0  0
   -6.7660    3.5510   34.4670 O   0  0  0  0  0  0  0  0  0  0  0  0
   -5.7250    0.9920   34.1360 C   0  0  0  0  0  0  0  0  0  0  0  0
   -5.6520   -0.5150   34.2420 C   0  0  0  0  0  0  0  0  0  0  0  0
   -6.6840   -1.2390   34.8370 C   0  0  0  0  0  0  0  0  0  0  0  0
   -4.5410   -1.2140   33.7720 C   0  0  0  0  0  0  0  0  0  0  0  0
   -6.6280   -2.6200   34.9510 C   0  0  0  0  0  0  0  0  0  0  0  0
   -4.4700   -2.6100   33.8770 C   0  0  0  0  0  0  0  0  0  0  0  0
   -5.5250   -3.3020   34.4670 C   0  0  0  0  0  0  0  0  0  0  0  0
   -5.4830   -4.6720   34.5830 O   0  0  0  0  0  0  0  0  0  0  0  0
   -7.3220    3.7360   32.2840 N   0  0  0  0  0  0  0  0  0  0  0  0
   -7.2600    5.2040   32.2490 C   0  0  2  0  0  0  0  0  0  0  0  0
   -8.1890    5.9180   33.2300 C   0  0  0  0  0  0  0  0  0  0  0  0
   -7.9630    7.0830   33.5630 O   0  0  0  0  0  0  0  0  0  0  0  0
   -7.4840    5.7290   30.8250 C   0  0  0  0  0  0  0  0  0  0  0  0
   -8.8720    5.4790   30.2520 C   0  0  0  0  0  0  0  0  0  0  0  0
   -8.9220    5.8160   28.7680 C   0  0  0  0  0  0  0  0  0  0  0  0
   -8.6790    7.2890   28.5180 C   0  0  0  0  0  0  0  0  0  0  0  0
   -9.9220    8.0920   28.7440 N   0  0  0  0  0  0  0  0  0  0  0  0
  2  1  1  0
  2  3  1  1
  4  3  2  0
  5  2  1  0
  6  5  1  0
  7  1  1  0
  7  6  1  0
  8  3  1  0
  9  8  1  0
 10  9  1  0
 11 10  2  0
  9 12  1  6
 13 12  1  0
 14 13  1  0
 15 13  1  0
 16 10  1  0
 17 16  1  0
 18 17  1  0
 19 18  2  0
 17 20  1  1
 21 20  1  0
 22 21  1  0
 23 22  1  0
 25 24  1  1
 26 25  1  0
 27 26  2  0
 28 25  1  0
 29 28  1  0
 30 29  1  0
 31 30  1  0
 33 32  1  1
 34 33  1  0
 35 34  2  0
 36 33  1  0
 37 36  1  0
 38 37  1  0
 39 38  2  0
 40 38  1  0
 41 34  1  0
 42 41  1  0
 43 42  1  0
 44 43  2  0
 42 45  1  1
 46 45  1  0
 47 46  1  0
 48 47  1  0
 50 49  1  1
 51 50  1  0
 52 51  2  0
 53 50  1  0
 54 53  1  0
 55 54  1  0
 56 54  2  0
 57 55  2  0
 58 57  1  0
 58 56  1  0
 59 51  1  0
 60 59  1  0
 61 60  1  0
 62 61  2  0
 60 63  1  1
 64 63  1  0
 65 64  2  0
 66 64  1  0
 67 65  1  0
 68 66  2  0
 69 68  1  0
 69 67  2  0
 70 61  1  0
 71 70  1  0
 72 71  1  0
 73 72  2  0
 71 74  1  1
 75 74  1  0
 76 75  2  0
 77 75  1  0
 78 76  1  0
 79 77  2  0
 80 78  2  0
 80 79  1  0
 81 80  1  0
 82 72  1  0
 83 82  1  0
 84 83  1  0
 85 84  2  0
 83 86  1  6
 87 86  1  0
 88 87  1  0
 89 88  1  0
 90 89  1  0
M  END
$$$$
