
     RDKit          3D

133128  0  0  0  0  0  0  0  0999 V2000
   -5.3920   -9.9960   27.0070 N   0  0  0  0  0  0  0  0  0  0  0  0
   -4.8100   -9.3790   28.1960 C   0  0  2  0  0  0  0  0  0  0  0  0
   -3.2870   -9.4780   28.2300 C   0  0  0  0  0  0  0  0  0  0  0  0
   -2.6310   -8.7430   28.9720 O   0  0  0  0  0  0  0  0  0  0  0  0
   -5.4080   -9.9800   29.4740 C   0  0  0  0  0  0  0  0  0  0  0  0
   -6.9060   -9.7630   29.6290 C   0  0  0  0  0  0  0  0  0  0  0  0
   -7.3660   -8.0370   29.8390 S   0  0  0  0  0  0  0  0  0  0  0  0
   -9.1370   -8.1410   29.7410 C   0  0  0  0  0  0  0  0  0  0  0  0
   -5.9590    1.1190   29.0340 N   0  0  0  0  0  0  0  0  0  0  0  0
   -6.8960    0.1480   29.5960 C   0  0  2  0  0  0  0  0  0  0  0  0
   -7.3960    0.5690   30.9860 C   0  0  0  0  0  0  0  0  0  0  0  0
   -8.5800    0.4140   31.2980 O   0  0  0  0  0  0  0  0  0  0  0  0
   -6.2310   -1.2370   29.6580 C   0  0  0  0  0  0  0  0  0  0  0  0
   -7.1630   -2.3440   30.0700 C   0  0  0  0  0  0  0  0  0  0  0  0
   -8.2490   -2.6940   29.2730 C   0  0  0  0  0  0  0  0  0  0  0  0
   -6.9470   -3.0440   31.2500 C   0  0  0  0  0  0  0  0  0  0  0  0
   -9.1170   -3.7060   29.6600 C   0  0  0  0  0  0  0  0  0  0  0  0
   -7.8050   -4.0670   31.6370 C   0  0  0  0  0  0  0  0  0  0  0  0
   -8.8960   -4.3930   30.8460 C   0  0  0  0  0  0  0  0  0  0  0  0
   -6.4890    1.1060   31.8040 N   0  0  0  0  0  0  0  0  0  0  0  0
   -6.8040    1.5140   33.1760 C   0  0  2  0  0  0  0  0  0  0  0  0
   -6.9560    3.0330   33.3560 C   0  0  0  0  0  0  0  0  0  0  0  0
   -6.7660    3.5510   34.4670 O   0  0  0  0  0  0  0  0  0  0  0  0
   -5.7250    0.9920   34.1360 C   0  0  0  0  0  0  0  0  0  0  0  0
   -5.6520   -0.5150   34.2420 C   0  0  0  0  0  0  0  0  0  0  0  0
   -6.6840   -1.2390   34.8370 C   0  0  0  0  0  0  0  0  0  0  0  0
   -4.5410   -1.2140   33.7720 C   0  0  0  0  0  0  0  0  0  0  0  0
   -6.6280   -2.6200   34.9510 C   0  0  0  0  0  0  0  0  0  0  0  0
   -4.4700   -2.6100   33.8770 C   0  0  0  0  0  0  0  0  0  0  0  0
   -5.5250   -3.3020   34.4670 C   0  0  0  0  0  0  0  0  0  0  0  0
   -5.4830   -4.6720   34.5830 O   0  0  0  0  0  0  0  0  0  0  0  0
   -9.2300    5.2200   33.6770 N   0  0  0  0  0  0  0  0  0  0  0  0
  -10.2290    5.7880   34.5800 C   0  0  2  0  0  0  0  0  0  0  0  0
  -10.0350    5.3240   36.0240 C   0  0  0  0  0  0  0  0  0  0  0  0
  -10.9490    5.3910   36.8540 O   0  0  0  0  0  0  0  0  0  0  0  0
  -11.6320    5.4580   34.0780 C   0  0  0  0  0  0  0  0  0  0  0  0
  -11.9640    6.1670   32.7790 C   0  0  0  0  0  0  0  0  0  0  0  0
  -11.8020    7.4090   32.7100 O   0  0  0  0  0  0  0  0  0  0  0  0
  -12.3850    5.4770   31.8260 O   0  0  0  0  0  0  0  0  0  0  0  0
   -8.8220    4.8560   36.2940 N   0  0  0  0  0  0  0  0  0  0  0  0
   -8.3900    4.4180   37.6110 C   0  0  2  0  0  0  0  0  0  0  0  0
   -7.1720    5.2570   37.9800 C   0  0  0  0  0  0  0  0  0  0  0  0
   -6.0930    5.0400   37.4460 O   0  0  0  0  0  0  0  0  0  0  0  0
   -8.0360    2.9340   37.5560 C   0  0  0  0  0  0  0  0  0  0  0  0
   -7.9280    2.3010   38.9240 C   0  0  0  0  0  0  0  0  0  0  0  0
   -7.5200    2.9370   39.8960 O   0  0  0  0  0  0  0  0  0  0  0  0
   -8.2700    1.0230   38.9990 N   0  0  0  0  0  0  0  0  0  0  0  0
   -4.0100    3.0780   39.6010 N   0  0  0  0  0  0  0  0  0  0  0  0
   -3.4350    2.1380   38.6250 C   0  0  2  0  0  0  0  0  0  0  0  0
   -2.8330    2.8070   37.3760 C   0  0  0  0  0  0  0  0  0  0  0  0
   -1.7460    2.4200   36.9390 O   0  0  0  0  0  0  0  0  0  0  0  0
   -4.4440    1.0180   38.2350 C   0  0  0  0  0  0  0  0  0  0  0  0
   -3.8360    0.0480   37.2330 C   0  0  0  0  0  0  0  0  0  0  0  0
   -4.8850    0.2510   39.4720 C   0  0  0  0  0  0  0  0  0  0  0  0
    0.2820   -5.5650   38.7070 N   0  0  0  0  0  0  0  0  0  0  0  0
   -1.1160   -5.3770   39.0690 C   0  0  2  0  0  0  0  0  0  0  0  0
   -2.0570   -5.8580   37.9660 C   0  0  0  0  0  0  0  0  0  0  0  0
   -3.1310   -6.3790   38.2580 O   0  0  0  0  0  0  0  0  0  0  0  0
   -1.4040   -3.9120   39.4250 C   0  0  0  0  0  0  0  0  0  0  0  0
   -0.6610   -3.4190   40.6720 C   0  0  0  0  0  0  0  0  0  0  0  0
   -0.8510   -4.3580   41.8740 C   0  0  0  0  0  0  0  0  0  0  0  0
   -0.0650   -3.9270   43.0270 N   0  0  0  0  0  0  0  0  0  0  0  0
    1.1070   -4.4470   43.4050 C   0  0  0  0  0  0  0  0  0  0  0  0
    1.6710   -5.4580   42.7390 N   0  0  0  0  0  0  0  0  0  0  0  0
    1.7200   -3.9420   44.4760 N   0  0  0  0  0  0  0  0  0  0  0  0
   -1.6390   -5.6990   36.7110 N   0  0  0  0  0  0  0  0  0  0  0  0
   -2.4050   -6.1780   35.5610 C   0  0  2  0  0  0  0  0  0  0  0  0
   -2.5390   -7.7120   35.5430 C   0  0  0  0  0  0  0  0  0  0  0  0
   -3.6390   -8.2560   35.3480 O   0  0  0  0  0  0  0  0  0  0  0  0
   -1.7800   -5.6590   34.2570 C   0  0  0  0  0  0  0  0  0  0  0  0
   -2.4720   -6.1430   33.0190 C   0  0  0  0  0  0  0  0  0  0  0  0
   -3.8340   -6.0340   32.8340 N   0  0  0  0  0  0  0  0  0  0  0  0
   -1.9870   -6.7330   31.9010 C   0  0  0  0  0  0  0  0  0  0  0  0
   -4.1590   -6.5350   31.6570 C   0  0  0  0  0  0  0  0  0  0  0  0
   -3.0570   -6.9670   31.0700 N   0  0  0  0  0  0  0  0  0  0  0  0
   -2.1930   -9.4980   38.1710 N   0  0  0  0  0  0  0  0  0  0  0  0
   -2.9400   -9.7940   39.3900 C   0  0  0  0  0  0  0  0  0  0  0  0
   -4.4460   -9.6860   39.2630 C   0  0  0  0  0  0  0  0  0  0  0  0
   -5.1670  -10.1410   40.1470 O   0  0  0  0  0  0  0  0  0  0  0  0
   -4.9200   -9.0860   38.1680 N   0  0  0  0  0  0  0  0  0  0  0  0
   -6.3570   -8.9770   37.8690 C   0  0  2  0  0  0  0  0  0  0  0  0
   -6.9430  -10.1740   37.1290 C   0  0  0  0  0  0  0  0  0  0  0  0
   -8.1620  -10.2960   37.0060 O   0  0  0  0  0  0  0  0  0  0  0  0
   -6.6700   -7.6830   37.1080 C   0  0  0  0  0  0  0  0  0  0  0  0
   -6.8050   -6.4900   38.0200 C   0  0  0  0  0  0  0  0  0  0  0  0
   -7.2880   -6.6070   39.1500 O   0  0  0  0  0  0  0  0  0  0  0  0
   -6.3710   -5.3270   37.5410 N   0  0  0  0  0  0  0  0  0  0  0  0
   -6.0720  -11.0390   36.6160 N   0  0  0  0  0  0  0  0  0  0  0  0
   -6.4960  -12.3280   36.0800 C   0  0  2  0  0  0  0  0  0  0  0  0
   -7.0090  -13.1870   37.2270 C   0  0  0  0  0  0  0  0  0  0  0  0
   -6.3380  -13.3210   38.2540 O   0  0  0  0  0  0  0  0  0  0  0  0
   -5.3350  -13.0710   35.4050 C   0  0  0  0  0  0  0  0  0  0  0  0
   -4.6530  -12.3690   34.2430 C   0  0  0  0  0  0  0  0  0  0  0  0
   -5.7830  -11.8640   32.9380 S   0  0  0  0  0  0  0  0  0  0  0  0
   -5.5940  -10.1030   33.1180 C   0  0  0  0  0  0  0  0  0  0  0  0
   -8.1900  -13.7660   37.0450 N   0  0  0  0  0  0  0  0  0  0  0  0
   -8.7570  -14.6920   38.0140 C   0  0  2  0  0  0  0  0  0  0  0  0
   -8.5060  -16.1150   37.5170 C   0  0  0  0  0  0  0  0  0  0  0  0
   -9.0010  -16.4850   36.4480 O   0  0  0  0  0  0  0  0  0  0  0  0
  -10.2850  -14.4490   38.2600 C   0  0  2  0  0  0  0  0  0  0  0  0
  -10.5520  -12.9830   38.6230 C   0  0  0  0  0  0  0  0  0  0  0  0
  -10.7890  -15.3390   39.3800 C   0  0  0  0  0  0  0  0  0  0  0  0
  -12.0290  -12.6330   38.8340 C   0  0  0  0  0  0  0  0  0  0  0  0
   -7.7360  -16.9140   38.2890 N   0  0  0  0  0  0  0  0  0  0  0  0
   -7.3420  -18.2600   37.8530 C   0  0  2  0  0  0  0  0  0  0  0  0
   -8.4930  -19.2570   37.9110 C   0  0  0  0  0  0  0  0  0  0  0  0
   -9.0910  -19.4610   38.9720 O   0  0  0  0  0  0  0  0  0  0  0  0
   -6.2190  -18.6390   38.8300 C   0  0  0  0  0  0  0  0  0  0  0  0
   -6.4700  -17.8100   40.0530 C   0  0  0  0  0  0  0  0  0  0  0  0
   -7.1970  -16.5710   39.6220 C   0  0  0  0  0  0  0  0  0  0  0  0
  -11.3050  -18.6820   37.0330 N   0  0  0  0  0  0  0  0  0  0  0  0
  -12.4340  -17.8620   37.5210 C   0  0  2  0  0  0  0  0  0  0  0  0
  -12.8220  -18.1710   38.9920 C   0  0  0  0  0  0  0  0  0  0  0  0
  -13.9800  -18.0190   39.4020 O   0  0  0  0  0  0  0  0  0  0  0  0
  -13.6350  -17.9670   36.5570 C   0  0  0  0  0  0  0  0  0  0  0  0
  -14.6100  -16.7880   36.6710 C   0  0  0  0  0  0  0  0  0  0  0  0
  -14.2220  -15.6520   36.9560 O   0  0  0  0  0  0  0  0  0  0  0  0
  -15.8890  -17.0650   36.4240 N   0  0  0  0  0  0  0  0  0  0  0  0
  -10.0060  -17.7420   45.4620 N   0  0  0  0  0  0  0  0  0  0  0  0
   -8.5730  -17.9640   45.3540 C   0  0  2  0  0  0  0  0  0  0  0  0
   -7.7610  -16.7010   45.5620 C   0  0  0  0  0  0  0  0  0  0  0  0
   -8.0620  -15.6620   44.9800 O   0  0  0  0  0  0  0  0  0  0  0  0
   -8.2380  -18.5640   43.9880 C   0  0  0  0  0  0  0  0  0  0  0  0
   -6.8720  -18.9160   43.9200 O   0  0  0  0  0  0  0  0  0  0  0  0
   -2.4190  -15.5590   42.3830 N   0  0  0  0  0  0  0  0  0  0  0  0
   -2.2130  -14.5730   41.3160 C   0  0  2  0  0  0  0  0  0  0  0  0
   -0.9670  -14.8810   40.4940 C   0  0  0  0  0  0  0  0  0  0  0  0
    0.1100  -15.1180   41.0620 O   0  0  0  0  0  0  0  0  0  0  0  0
   -2.0870  -13.1530   41.8890 C   0  0  0  0  0  0  0  0  0  0  0  0
   -3.3260  -12.6280   42.5850 C   0  0  0  0  0  0  0  0  0  0  0  0
   -3.0560  -11.2760   43.1810 C   0  0  0  0  0  0  0  0  0  0  0  0
   -4.2840  -10.7430   43.8960 C   0  0  0  0  0  0  0  0  0  0  0  0
   -4.0000   -9.3830   44.4110 N   0  0  0  0  0  0  0  0  0  0  0  0
  2  1  1  6
  3  2  1  0
  4  3  2  0
  5  2  1  0
  6  5  1  0
  7  6  1  0
  8  7  1  0
 10  9  1  1
 11 10  1  0
 12 11  2  0
 13 10  1  0
 14 13  1  0
 15 14  2  0
 16 14  1  0
 17 15  1  0
 18 16  2  0
 19 18  1  0
 19 17  2  0
 20 11  1  0
 21 20  1  0
 22 21  1  0
 23 22  2  0
 21 24  1  1
 25 24  1  0
 26 25  2  0
 27 25  1  0
 28 26  1  0
 29 27  2  0
 30 28  2  0
 30 29  1  0
 31 30  1  0
 33 32  1  6
 34 33  1  0
 35 34  2  0
 36 33  1  0
 37 36  1  0
 38 37  2  0
 39 37  1  0
 40 34  1  0
 41 40  1  0
 42 41  1  0
 43 42  2  0
 41 44  1  6
 45 44  1  0
 46 45  2  0
 47 45  1  0
 49 48  1  1
 50 49  1  0
 51 50  2  0
 52 49  1  0
 53 52  1  0
 54 52  1  0
 56 55  1  6
 57 56  1  0
 58 57  2  0
 59 56  1  0
 60 59  1  0
 61 60  1  0
 62 61  1  0
 63 62  1  0
 64 63  1  0
 65 63  2  0
 66 57  1  0
 67 66  1  0
 68 67  1  0
 69 68  2  0
 67 70  1  6
 71 70  1  0
 72 71  1  0
 73 71  2  0
 74 72  2  0
 75 74  1  0
 75 73  1  0
 77 76  1  0
 78 77  1  0
 79 78  2  0
 80 78  1  0
 81 80  1  0
 82 81  1  0
 83 82  2  0
 81 84  1  6
 85 84  1  0
 86 85  2  0
 87 85  1  0
 88 82  1  0
 89 88  1  0
 90 89  1  0
 91 90  2  0
 89 92  1  1
 93 92  1  0
 94 93  1  0
 95 94  1  0
 96 90  1  0
 97 96  1  6
 98 97  1  0
 99 98  2  0
100 97  1  0
101100  1  0
100102  1  1
103101  1  0
104 98  1  0
105104  1  0
105106  1  1
107106  2  0
108105  1  0
109108  1  0
110109  1  0
110104  1  0
112111  1  6
113112  1  0
114113  2  0
115112  1  0
116115  1  0
117116  2  0
118116  1  0
120119  1  6
121120  1  0
122121  2  0
123120  1  0
124123  1  0
126125  1  1
127126  1  0
128127  2  0
129126  1  0
130129  1  0
131130  1  0
132131  1  0
133132  1  0
M  END
$$$$
