
     RDKit          3D

144143  0  0  0  0  0  0  0  0999 V2000
   37.9720  -24.6220   17.0090 N   0  0  0  0  0  0  0  0  0  0  0  0
   37.7230  -24.4590   15.5840 C   0  0  2  0  0  0  0  0  0  0  0  0
   38.9770  -24.7110   14.7570 C   0  0  0  0  0  0  0  0  0  0  0  0
   40.0530  -24.9760   15.3000 O   0  0  0  0  0  0  0  0  0  0  0  0
   37.1900  -23.0520   15.3010 C   0  0  0  0  0  0  0  0  0  0  0  0
   35.7970  -22.9640   15.5470 O   0  0  0  0  0  0  0  0  0  0  0  0
   38.1090  -13.4540    9.9730 N   0  0  0  0  0  0  0  0  0  0  0  0
   36.9170  -13.9310   10.6790 C   0  0  2  0  0  0  0  0  0  0  0  0
   37.1810  -15.2380   11.4130 C   0  0  0  0  0  0  0  0  0  0  0  0
   36.2950  -15.7810   12.0710 O   0  0  0  0  0  0  0  0  0  0  0  0
   35.7060  -14.0470    9.7390 C   0  0  0  0  0  0  0  0  0  0  0  0
   35.8020  -15.1630    8.7440 C   0  0  0  0  0  0  0  0  0  0  0  0
   36.3260  -14.9920    7.4810 N   0  0  0  0  0  0  0  0  0  0  0  0
   35.4240  -16.4620    8.8200 C   0  0  0  0  0  0  0  0  0  0  0  0
   36.2730  -16.1380    6.8250 C   0  0  0  0  0  0  0  0  0  0  0  0
   35.7300  -17.0460    7.6160 N   0  0  0  0  0  0  0  0  0  0  0  0
   38.4070  -15.7330   11.2890 N   0  0  0  0  0  0  0  0  0  0  0  0
   38.8500  -16.8960   12.0340 C   0  0  2  0  0  0  0  0  0  0  0  0
   39.3610  -16.4970   13.4120 C   0  0  0  0  0  0  0  0  0  0  0  0
   39.5900  -17.3490   14.2670 O   0  0  0  0  0  0  0  0  0  0  0  0
   39.9680  -17.5960   11.2720 C   0  0  0  0  0  0  0  0  0  0  0  0
   39.4330  -18.4450    9.7970 S   0  0  0  0  0  0  0  0  0  0  0  0
   38.2850  -13.1450   14.7730 N   0  0  0  0  0  0  0  0  0  0  0  0
   37.4540  -12.0200   15.2120 C   0  0  2  0  0  0  0  0  0  0  0  0
   36.8920  -12.2050   16.6270 C   0  0  0  0  0  0  0  0  0  0  0  0
   36.3730  -11.2680   17.2310 O   0  0  0  0  0  0  0  0  0  0  0  0
   36.3400  -11.7260   14.1930 C   0  0  0  0  0  0  0  0  0  0  0  0
   35.7850  -12.9130   13.6530 O   0  0  0  0  0  0  0  0  0  0  0  0
   37.0290  -13.4170   17.1510 N   0  0  0  0  0  0  0  0  0  0  0  0
   36.5720  -13.7570   18.4880 C   0  0  2  0  0  0  0  0  0  0  0  0
   37.7400  -13.7470   19.4760 C   0  0  0  0  0  0  0  0  0  0  0  0
   37.7100  -14.4500   20.4960 O   0  0  0  0  0  0  0  0  0  0  0  0
   35.9180  -15.1360   18.4570 C   0  0  0  0  0  0  0  0  0  0  0  0
   36.7390  -16.1680   17.7500 C   0  0  0  0  0  0  0  0  0  0  0  0
   37.7560  -16.8630   18.3700 N   0  0  0  0  0  0  0  0  0  0  0  0
   36.7060  -16.6080   16.4700 C   0  0  0  0  0  0  0  0  0  0  0  0
   38.3080  -17.6940   17.5050 C   0  0  0  0  0  0  0  0  0  0  0  0
   37.6900  -17.5580   16.3440 N   0  0  0  0  0  0  0  0  0  0  0  0
   38.7640  -12.9560   19.1510 N   0  0  0  0  0  0  0  0  0  0  0  0
   39.9810  -12.7620   19.9720 C   0  0  2  0  0  0  0  0  0  0  0  0
   40.5040  -13.9850   20.7490 C   0  0  0  0  0  0  0  0  0  0  0  0
   40.6180  -13.9260   21.9810 O   0  0  0  0  0  0  0  0  0  0  0  0
   39.8030  -11.5690   20.9260 C   0  0  0  0  0  0  0  0  0  0  0  0
   39.5950  -10.3620   20.2080 O   0  0  0  0  0  0  0  0  0  0  0  0
   39.5110   -3.7730    9.4650 N   0  0  0  0  0  0  0  0  0  0  0  0
   38.5270   -4.8350    9.5140 C   0  0  2  0  0  0  0  0  0  0  0  0
   37.6640   -4.6760   10.7520 C   0  0  0  0  0  0  0  0  0  0  0  0
   38.1860   -4.5780   11.8720 O   0  0  0  0  0  0  0  0  0  0  0  0
   39.1980   -6.2010    9.4990 C   0  0  0  0  0  0  0  0  0  0  0  0
   38.2380   -7.3280    9.7560 C   0  0  0  0  0  0  0  0  0  0  0  0
   37.4170   -7.8100    8.7440 C   0  0  0  0  0  0  0  0  0  0  0  0
   38.1390   -7.9090   11.0210 C   0  0  0  0  0  0  0  0  0  0  0  0
   36.5270   -8.8470    8.9760 C   0  0  0  0  0  0  0  0  0  0  0  0
   37.2490   -8.9530   11.2690 C   0  0  0  0  0  0  0  0  0  0  0  0
   36.4470   -9.4160   10.2410 C   0  0  0  0  0  0  0  0  0  0  0  0
   35.5680  -10.4460   10.4830 O   0  0  0  0  0  0  0  0  0  0  0  0
   36.3470   -4.6550   10.5360 N   0  0  0  0  0  0  0  0  0  0  0  0
   35.3630   -4.4910   11.6140 C   0  0  2  0  0  0  0  0  0  0  0  0
   34.3700   -5.6400   11.6590 C   0  0  0  0  0  0  0  0  0  0  0  0
   33.9240   -6.1270   10.6180 O   0  0  0  0  0  0  0  0  0  0  0  0
   34.5950   -3.1770   11.4610 C   0  0  0  0  0  0  0  0  0  0  0  0
   33.5050   -3.1180   12.3680 O   0  0  0  0  0  0  0  0  0  0  0  0
   34.0080   -6.0420   12.8760 N   0  0  0  0  0  0  0  0  0  0  0  0
   33.0830   -7.1570   13.0910 C   0  0  2  0  0  0  0  0  0  0  0  0
   31.6720   -6.8350   12.6210 C   0  0  0  0  0  0  0  0  0  0  0  0
   30.8650   -7.7400   12.4210 O   0  0  0  0  0  0  0  0  0  0  0  0
   33.0460   -7.6180   14.5740 C   0  0  0  0  0  0  0  0  0  0  0  0
   34.4590   -7.8840   15.0910 C   0  0  0  0  0  0  0  0  0  0  0  0
   32.3150   -6.6070   15.4680 C   0  0  0  0  0  0  0  0  0  0  0  0
   31.3870   -5.5430   12.4500 N   0  0  0  0  0  0  0  0  0  0  0  0
   30.0890   -5.0810   11.9550 C   0  0  2  0  0  0  0  0  0  0  0  0
   29.9810   -5.2450   10.4350 C   0  0  0  0  0  0  0  0  0  0  0  0
   28.9420   -4.9550    9.8420 O   0  0  0  0  0  0  0  0  0  0  0  0
   29.8340   -3.6140   12.3450 C   0  0  0  0  0  0  0  0  0  0  0  0
   29.9230   -3.3410   13.8260 C   0  0  0  0  0  0  0  0  0  0  0  0
   29.0450   -3.9460   14.7180 C   0  0  0  0  0  0  0  0  0  0  0  0
   30.8680   -2.4530   14.3210 C   0  0  0  0  0  0  0  0  0  0  0  0
   29.1220   -3.6910   16.0850 C   0  0  0  0  0  0  0  0  0  0  0  0
   30.9510   -2.1890   15.6880 C   0  0  0  0  0  0  0  0  0  0  0  0
   30.0740   -2.8110   16.5710 C   0  0  0  0  0  0  0  0  0  0  0  0
   31.0640   -5.7110    9.8210 N   0  0  0  0  0  0  0  0  0  0  0  0
   31.1270   -5.9320    8.3840 C   0  0  2  0  0  0  0  0  0  0  0  0
   32.1050   -7.0740    8.0740 C   0  0  0  0  0  0  0  0  0  0  0  0
   33.0790   -6.8930    7.3390 O   0  0  0  0  0  0  0  0  0  0  0  0
   31.5460   -4.6360    7.6940 C   0  0  0  0  0  0  0  0  0  0  0  0
   31.5790   -4.7600    6.1910 C   0  0  0  0  0  0  0  0  0  0  0  0
   30.9110   -5.6150    5.6100 O   0  0  0  0  0  0  0  0  0  0  0  0
   32.3580   -3.8990    5.5470 N   0  0  0  0  0  0  0  0  0  0  0  0
   31.8040   -8.2760    8.5840 N   0  0  0  0  0  0  0  0  0  0  0  0
   32.7940   -9.2980    8.9480 C   0  0  2  0  0  0  0  0  0  0  0  0
   33.4870   -9.9880    7.7900 C   0  0  0  0  0  0  0  0  0  0  0  0
   34.4970  -10.6630    8.0020 O   0  0  0  0  0  0  0  0  0  0  0  0
   31.9720  -10.3330    9.7240 C   0  0  0  0  0  0  0  0  0  0  0  0
   30.5950   -9.7630    9.8460 C   0  0  0  0  0  0  0  0  0  0  0  0
   30.4320   -8.7650    8.7670 C   0  0  0  0  0  0  0  0  0  0  0  0
   32.9520   -9.8510    6.5850 N   0  0  0  0  0  0  0  0  0  0  0  0
   33.5680  -10.5060    5.4430 C   0  0  2  0  0  0  0  0  0  0  0  0
   34.0310   -9.4860    4.4180 C   0  0  0  0  0  0  0  0  0  0  0  0
   34.0380   -9.7530    3.2150 O   0  0  0  0  0  0  0  0  0  0  0  0
   32.6360  -11.5530    4.8370 C   0  0  0  0  0  0  0  0  0  0  0  0
   31.3610  -10.9980    4.6020 O   0  0  0  0  0  0  0  0  0  0  0  0
   38.8250   -9.1250    4.8330 N   0  0  0  0  0  0  0  0  0  0  0  0
   38.9710  -10.4100    5.5370 C   0  0  2  0  0  0  0  0  0  0  0  0
   40.3910  -10.9630    5.4000 C   0  0  0  0  0  0  0  0  0  0  0  0
   40.6670  -11.7860    4.5230 O   0  0  0  0  0  0  0  0  0  0  0  0
   37.9450  -11.4210    4.9980 C   0  0  0  0  0  0  0  0  0  0  0  0
   37.5360  -12.4630    6.0280 C   0  0  0  0  0  0  0  0  0  0  0  0
   38.2910  -12.7090    6.9930 O   0  0  0  0  0  0  0  0  0  0  0  0
   36.4410  -13.0470    5.8620 O   0  0  0  0  0  0  0  0  0  0  0  0
   32.6380  -24.9110    4.1140 N   0  0  0  0  0  0  0  0  0  0  0  0
   32.9500  -24.7680    5.5380 C   0  0  2  0  0  0  0  0  0  0  0  0
   34.1090  -25.6900    5.9330 C   0  0  0  0  0  0  0  0  0  0  0  0
   34.0310  -26.9130    5.7680 O   0  0  0  0  0  0  0  0  0  0  0  0
   31.7100  -25.0310    6.4050 C   0  0  0  0  0  0  0  0  0  0  0  0
   30.9270  -23.7680    6.8020 C   0  0  0  0  0  0  0  0  0  0  0  0
   30.1290  -23.1400    5.6550 C   0  0  0  0  0  0  0  0  0  0  0  0
   29.4940  -23.8390    4.8590 O   0  0  0  0  0  0  0  0  0  0  0  0
   30.1440  -21.8100    5.5830 N   0  0  0  0  0  0  0  0  0  0  0  0
   37.8770  -21.7300    5.0590 N   0  0  0  0  0  0  0  0  0  0  0  0
   38.1330  -20.3280    5.4020 C   0  0  2  0  0  0  0  0  0  0  0  0
   39.6020  -20.0390    5.6420 C   0  0  0  0  0  0  0  0  0  0  0  0
   40.2590  -20.7570    6.3830 O   0  0  0  0  0  0  0  0  0  0  0  0
   37.3520  -19.9510    6.6520 C   0  0  0  0  0  0  0  0  0  0  0  0
   35.9650  -20.1290    6.4540 O   0  0  0  0  0  0  0  0  0  0  0  0
   36.7980  -16.9100    1.6910 N   0  0  0  0  0  0  0  0  0  0  0  0
   36.1810  -15.9360    2.5970 C   0  0  2  0  0  0  0  0  0  0  0  0
   34.6980  -16.1500    2.8870 C   0  0  0  0  0  0  0  0  0  0  0  0
   34.3180  -16.3330    4.0400 O   0  0  0  0  0  0  0  0  0  0  0  0
   36.4090  -14.5080    2.0780 C   0  0  0  0  0  0  0  0  0  0  0  0
   35.9570  -13.5430    3.0200 O   0  0  0  0  0  0  0  0  0  0  0  0
   33.8620  -16.0950    1.8500 N   0  0  0  0  0  0  0  0  0  0  0  0
   32.4190  -16.2740    2.0240 C   0  0  2  0  0  0  0  0  0  0  0  0
   31.6620  -16.6000    0.7340 C   0  0  0  0  0  0  0  0  0  0  0  0
   32.1920  -16.4350   -0.3650 O   0  0  0  0  0  0  0  0  0  0  0  0
   31.8140  -15.0480    2.7020 C   0  0  0  0  0  0  0  0  0  0  0  0
   31.8020  -13.8160    1.8540 C   0  0  0  0  0  0  0  0  0  0  0  0
   32.8340  -12.9410    1.6460 C   0  0  0  0  0  0  0  0  0  0  0  0
   30.6930  -13.3090    1.1210 C   0  0  0  0  0  0  0  0  0  0  0  0
   32.4310  -11.9180    0.8230 N   0  0  0  0  0  0  0  0  0  0  0  0
   31.1190  -12.1220    0.4850 C   0  0  0  0  0  0  0  0  0  0  0  0
   29.3780  -13.7430    0.9350 C   0  0  0  0  0  0  0  0  0  0  0  0
   30.2770  -11.3670   -0.3240 C   0  0  0  0  0  0  0  0  0  0  0  0
   28.5420  -12.9890    0.1360 C   0  0  0  0  0  0  0  0  0  0  0  0
   28.9940  -11.8160   -0.4880 C   0  0  0  0  0  0  0  0  0  0  0  0
  2  1  1  1
  3  2  1  0
  4  3  2  0
  5  2  1  0
  6  5  1  0
  8  7  1  6
  9  8  1  0
 10  9  2  0
 11  8  1  0
 12 11  1  0
 13 12  1  0
 14 12  2  0
 15 13  2  0
 16 14  1  0
 16 15  1  0
 17  9  1  0
 18 17  1  0
 19 18  1  0
 20 19  2  0
 18 21  1  6
 22 21  1  0
 24 23  1  6
 25 24  1  0
 26 25  2  0
 27 24  1  0
 28 27  1  0
 29 25  1  0
 30 29  1  0
 31 30  1  0
 32 31  2  0
 30 33  1  6
 34 33  1  0
 35 34  1  0
 36 34  2  0
 37 35  2  0
 38 36  1  0
 38 37  1  0
 39 31  1  0
 40 39  1  0
 41 40  1  0
 42 41  2  0
 40 43  1  1
 44 43  1  0
 46 45  1  1
 47 46  1  0
 48 47  2  0
 49 46  1  0
 50 49  1  0
 51 50  2  0
 52 50  1  0
 53 51  1  0
 54 52  2  0
 55 53  2  0
 55 54  1  0
 56 55  1  0
 57 47  1  0
 58 57  1  0
 59 58  1  0
 60 59  2  0
 58 61  1  6
 62 61  1  0
 63 59  1  0
 64 63  1  1
 65 64  1  0
 66 65  2  0
 67 64  1  0
 68 67  1  0
 69 67  1  0
 70 65  1  0
 71 70  1  0
 72 71  1  0
 73 72  2  0
 71 74  1  6
 75 74  1  0
 76 75  2  0
 77 75  1  0
 78 76  1  0
 79 77  2  0
 80 79  1  0
 80 78  2  0
 81 72  1  0
 82 81  1  0
 83 82  1  0
 84 83  2  0
 82 85  1  6
 86 85  1  0
 87 86  2  0
 88 86  1  0
 89 83  1  0
 90 89  1  0
 90 91  1  6
 92 91  2  0
 93 90  1  0
 94 93  1  0
 95 94  1  0
 95 89  1  0
 96 91  1  0
 97 96  1  0
 98 97  1  0
 99 98  2  0
 97100  1  6
101100  1  0
103102  1  6
104103  1  0
105104  2  0
106103  1  0
107106  1  0
108107  2  0
109107  1  0
111110  1  6
112111  1  0
113112  2  0
114111  1  0
115114  1  0
116115  1  0
117116  2  0
118116  1  0
120119  1  1
121120  1  0
122121  2  0
123120  1  0
124123  1  0
126125  1  6
127126  1  0
128127  2  0
129126  1  0
130129  1  0
131127  1  0
132131  1  0
133132  1  0
134133  2  0
132135  1  6
136135  1  0
137136  2  0
138136  1  0
139137  1  0
140139  1  0
140138  2  0
141138  1  0
142140  1  0
143141  2  0
144143  1  0
144142  2  0
M  END
$$$$
