
     RDKit          3D

128126  0  0  0  0  0  0  0  0999 V2000
   34.0080   -6.0420   12.8760 N   0  0  0  0  0  0  0  0  0  0  0  0
   33.0830   -7.1570   13.0910 C   0  0  2  0  0  0  0  0  0  0  0  0
   31.6720   -6.8350   12.6210 C   0  0  0  0  0  0  0  0  0  0  0  0
   30.8650   -7.7400   12.4210 O   0  0  0  0  0  0  0  0  0  0  0  0
   33.0460   -7.6180   14.5740 C   0  0  0  0  0  0  0  0  0  0  0  0
   34.4590   -7.8840   15.0910 C   0  0  0  0  0  0  0  0  0  0  0  0
   32.3150   -6.6070   15.4680 C   0  0  0  0  0  0  0  0  0  0  0  0
   31.3870   -5.5430   12.4500 N   0  0  0  0  0  0  0  0  0  0  0  0
   30.0890   -5.0810   11.9550 C   0  0  2  0  0  0  0  0  0  0  0  0
   29.9810   -5.2450   10.4350 C   0  0  0  0  0  0  0  0  0  0  0  0
   28.9420   -4.9550    9.8420 O   0  0  0  0  0  0  0  0  0  0  0  0
   29.8340   -3.6140   12.3450 C   0  0  0  0  0  0  0  0  0  0  0  0
   29.9230   -3.3410   13.8260 C   0  0  0  0  0  0  0  0  0  0  0  0
   29.0450   -3.9460   14.7180 C   0  0  0  0  0  0  0  0  0  0  0  0
   30.8680   -2.4530   14.3210 C   0  0  0  0  0  0  0  0  0  0  0  0
   29.1220   -3.6910   16.0850 C   0  0  0  0  0  0  0  0  0  0  0  0
   30.9510   -2.1890   15.6880 C   0  0  0  0  0  0  0  0  0  0  0  0
   30.0740   -2.8110   16.5710 C   0  0  0  0  0  0  0  0  0  0  0  0
   31.0640   -5.7110    9.8210 N   0  0  0  0  0  0  0  0  0  0  0  0
   31.1270   -5.9320    8.3840 C   0  0  2  0  0  0  0  0  0  0  0  0
   32.1050   -7.0740    8.0740 C   0  0  0  0  0  0  0  0  0  0  0  0
   33.0790   -6.8930    7.3390 O   0  0  0  0  0  0  0  0  0  0  0  0
   31.5460   -4.6360    7.6940 C   0  0  0  0  0  0  0  0  0  0  0  0
   31.5790   -4.7600    6.1910 C   0  0  0  0  0  0  0  0  0  0  0  0
   30.9110   -5.6150    5.6100 O   0  0  0  0  0  0  0  0  0  0  0  0
   32.3580   -3.8990    5.5470 N   0  0  0  0  0  0  0  0  0  0  0  0
   31.8040   -8.2760    8.5840 N   0  0  0  0  0  0  0  0  0  0  0  0
   32.7940   -9.2980    8.9480 C   0  0  2  0  0  0  0  0  0  0  0  0
   33.4870   -9.9880    7.7900 C   0  0  0  0  0  0  0  0  0  0  0  0
   34.4970  -10.6630    8.0020 O   0  0  0  0  0  0  0  0  0  0  0  0
   31.9720  -10.3330    9.7240 C   0  0  0  0  0  0  0  0  0  0  0  0
   30.5950   -9.7630    9.8460 C   0  0  0  0  0  0  0  0  0  0  0  0
   30.4320   -8.7650    8.7670 C   0  0  0  0  0  0  0  0  0  0  0  0
   32.9520   -9.8510    6.5850 N   0  0  0  0  0  0  0  0  0  0  0  0
   33.5680  -10.5060    5.4430 C   0  0  2  0  0  0  0  0  0  0  0  0
   34.0310   -9.4860    4.4180 C   0  0  0  0  0  0  0  0  0  0  0  0
   34.0380   -9.7530    3.2150 O   0  0  0  0  0  0  0  0  0  0  0  0
   32.6360  -11.5530    4.8370 C   0  0  0  0  0  0  0  0  0  0  0  0
   31.3610  -10.9980    4.6020 O   0  0  0  0  0  0  0  0  0  0  0  0
   23.2500   -8.0260   -9.4160 N   0  0  0  0  0  0  0  0  0  0  0  0
   22.1630   -8.3450   -8.4780 C   0  0  2  0  0  0  0  0  0  0  0  0
   21.8590   -9.8370   -8.2970 C   0  0  0  0  0  0  0  0  0  0  0  0
   21.9410  -10.3380   -7.1740 O   0  0  0  0  0  0  0  0  0  0  0  0
   20.9550   -7.6180   -9.0820 C   0  0  0  0  0  0  0  0  0  0  0  0
   21.3470   -7.3170  -10.5040 C   0  0  0  0  0  0  0  0  0  0  0  0
   22.8020   -7.0720  -10.4480 C   0  0  0  0  0  0  0  0  0  0  0  0
   25.8150  -11.3900   -6.3380 N   0  0  0  0  0  0  0  0  0  0  0  0
   26.0370  -10.9480   -4.9600 C   0  0  2  0  0  0  0  0  0  0  0  0
   25.5610   -9.5360   -4.6140 C   0  0  0  0  0  0  0  0  0  0  0  0
   25.5010   -9.1660   -3.4370 O   0  0  0  0  0  0  0  0  0  0  0  0
   27.4890  -11.1920   -4.5290 C   0  0  0  0  0  0  0  0  0  0  0  0
   27.7740  -12.6430   -4.2100 C   0  0  0  0  0  0  0  0  0  0  0  0
   27.2540  -13.2380   -3.0620 C   0  0  0  0  0  0  0  0  0  0  0  0
   28.5510  -13.4230   -5.0580 C   0  0  0  0  0  0  0  0  0  0  0  0
   27.4980  -14.5630   -2.7700 C   0  0  0  0  0  0  0  0  0  0  0  0
   28.7980  -14.7500   -4.7750 C   0  0  0  0  0  0  0  0  0  0  0  0
   28.2710  -15.3150   -3.6270 C   0  0  0  0  0  0  0  0  0  0  0  0
   28.5180  -16.6380   -3.3340 O   0  0  0  0  0  0  0  0  0  0  0  0
   26.7570   -6.2430   -2.0670 N   0  0  0  0  0  0  0  0  0  0  0  0
   27.5080   -6.9020   -1.0180 C   0  0  2  0  0  0  0  0  0  0  0  0
   28.9650   -7.0850   -1.4160 C   0  0  0  0  0  0  0  0  0  0  0  0
   29.8330   -7.2290   -0.5610 O   0  0  0  0  0  0  0  0  0  0  0  0
   26.8760   -8.2490   -0.6880 C   0  0  0  0  0  0  0  0  0  0  0  0
   25.5390   -8.1060    0.0080 C   0  0  0  0  0  0  0  0  0  0  0  0
   25.1510   -6.9520    0.3030 O   0  0  0  0  0  0  0  0  0  0  0  0
   24.8810   -9.1430    0.2650 O   0  0  0  0  0  0  0  0  0  0  0  0
   37.0020   -7.6620   -2.5330 N   0  0  0  0  0  0  0  0  0  0  0  0
   36.5500   -9.0130   -2.7230 C   0  0  2  0  0  0  0  0  0  0  0  0
   36.8660   -9.4200   -4.1480 C   0  0  0  0  0  0  0  0  0  0  0  0
   37.5660   -8.6900   -4.8570 O   0  0  0  0  0  0  0  0  0  0  0  0
   35.0520   -9.0930   -2.4510 C   0  0  0  0  0  0  0  0  0  0  0  0
   34.6620   -8.6090   -1.0670 C   0  0  0  0  0  0  0  0  0  0  0  0
   32.8880   -8.5760   -0.7570 S   0  0  0  0  0  0  0  0  0  0  0  0
   32.8760   -7.9390    0.9230 C   0  0  0  0  0  0  0  0  0  0  0  0
   32.6380  -24.9110    4.1140 N   0  0  0  0  0  0  0  0  0  0  0  0
   32.9500  -24.7680    5.5380 C   0  0  2  0  0  0  0  0  0  0  0  0
   34.1090  -25.6900    5.9330 C   0  0  0  0  0  0  0  0  0  0  0  0
   34.0310  -26.9130    5.7680 O   0  0  0  0  0  0  0  0  0  0  0  0
   31.7100  -25.0310    6.4050 C   0  0  0  0  0  0  0  0  0  0  0  0
   30.9270  -23.7680    6.8020 C   0  0  0  0  0  0  0  0  0  0  0  0
   30.1290  -23.1400    5.6550 C   0  0  0  0  0  0  0  0  0  0  0  0
   29.4940  -23.8390    4.8590 O   0  0  0  0  0  0  0  0  0  0  0  0
   30.1440  -21.8100    5.5830 N   0  0  0  0  0  0  0  0  0  0  0  0
   36.7980  -16.9100    1.6910 N   0  0  0  0  0  0  0  0  0  0  0  0
   36.1810  -15.9360    2.5970 C   0  0  2  0  0  0  0  0  0  0  0  0
   34.6980  -16.1500    2.8870 C   0  0  0  0  0  0  0  0  0  0  0  0
   34.3180  -16.3330    4.0400 O   0  0  0  0  0  0  0  0  0  0  0  0
   36.4090  -14.5080    2.0780 C   0  0  0  0  0  0  0  0  0  0  0  0
   35.9570  -13.5430    3.0200 O   0  0  0  0  0  0  0  0  0  0  0  0
   33.8620  -16.0950    1.8500 N   0  0  0  0  0  0  0  0  0  0  0  0
   32.4190  -16.2740    2.0240 C   0  0  2  0  0  0  0  0  0  0  0  0
   31.6620  -16.6000    0.7340 C   0  0  0  0  0  0  0  0  0  0  0  0
   32.1920  -16.4350   -0.3650 O   0  0  0  0  0  0  0  0  0  0  0  0
   31.8140  -15.0480    2.7020 C   0  0  0  0  0  0  0  0  0  0  0  0
   31.8020  -13.8160    1.8540 C   0  0  0  0  0  0  0  0  0  0  0  0
   32.8340  -12.9410    1.6460 C   0  0  0  0  0  0  0  0  0  0  0  0
   30.6930  -13.3090    1.1210 C   0  0  0  0  0  0  0  0  0  0  0  0
   32.4310  -11.9180    0.8230 N   0  0  0  0  0  0  0  0  0  0  0  0
   31.1190  -12.1220    0.4850 C   0  0  0  0  0  0  0  0  0  0  0  0
   29.3780  -13.7430    0.9350 C   0  0  0  0  0  0  0  0  0  0  0  0
   30.2770  -11.3670   -0.3240 C   0  0  0  0  0  0  0  0  0  0  0  0
   28.5420  -12.9890    0.1360 C   0  0  0  0  0  0  0  0  0  0  0  0
   28.9940  -11.8160   -0.4880 C   0  0  0  0  0  0  0  0  0  0  0  0
   30.4290  -17.0770    0.8940 N   0  0  0  0  0  0  0  0  0  0  0  0
   29.5780  -17.4770   -0.2240 C   0  0  0  0  0  0  0  0  0  0  0  0
   28.3070  -18.1590    0.2490 C   0  0  0  0  0  0  0  0  0  0  0  0
   28.2160  -18.5940    1.3970 O   0  0  0  0  0  0  0  0  0  0  0  0
   27.3170  -18.2390   -0.6510 N   0  0  0  0  0  0  0  0  0  0  0  0
   26.0060  -18.7510   -0.3890 C   0  0  2  0  0  0  0  0  0  0  0  0
   26.0310  -20.2800   -0.4200 C   0  0  0  0  0  0  0  0  0  0  0  0
   26.4450  -20.9080   -1.3790 O   0  0  0  0  0  0  0  0  0  0  0  0
   24.8430  -18.1490   -1.1020 C   0  0  0  0  0  0  0  0  0  0  0  0
   23.4530  -18.5700   -0.5880 C   0  0  0  0  0  0  0  0  0  0  0  0
   23.1880  -18.4430    0.6350 O   0  0  0  0  0  0  0  0  0  0  0  0
   22.5700  -18.7520   -1.4320 O   0  0  0  0  0  0  0  0  0  0  0  0
   25.8090  -20.7610    0.8180 N   0  0  0  0  0  0  0  0  0  0  0  0
   26.0840  -22.1970    1.0610 C   0  0  0  0  0  0  0  0  0  0  0  0
   27.4530  -22.4750    0.3990 C   0  0  0  0  0  0  0  0  0  0  0  0
   28.3520  -21.6590    0.4090 O   0  0  0  0  0  0  0  0  0  0  0  0
   25.7290  -19.3570   -7.3040 N   0  0  0  0  0  0  0  0  0  0  0  0
   26.5310  -18.9000   -6.1680 C   0  0  2  0  0  0  0  0  0  0  0  0
   27.9680  -19.4400   -6.1440 C   0  0  0  0  0  0  0  0  0  0  0  0
   28.2460  -20.4540   -5.4980 O   0  0  0  0  0  0  0  0  0  0  0  0
   25.8090  -19.1790   -4.8390 C   0  0  0  0  0  0  0  0  0  0  0  0
   24.3730  -18.6510   -4.7670 C   0  0  0  0  0  0  0  0  0  0  0  0
   24.3010  -17.1350   -4.9250 C   0  0  0  0  0  0  0  0  0  0  0  0
   22.8690  -16.6720   -5.1530 C   0  0  0  0  0  0  0  0  0  0  0  0
   22.7960  -15.2120   -5.4300 N   0  0  0  0  0  0  0  0  0  0  0  0
  2  1  1  1
  3  2  1  0
  4  3  2  0
  5  2  1  0
  6  5  1  0
  7  5  1  0
  8  3  1  0
  9  8  1  0
 10  9  1  0
 11 10  2  0
  9 12  1  6
 13 12  1  0
 14 13  2  0
 15 13  1  0
 16 14  1  0
 17 15  2  0
 18 17  1  0
 18 16  2  0
 19 10  1  0
 20 19  1  0
 21 20  1  0
 22 21  2  0
 20 23  1  6
 24 23  1  0
 25 24  2  0
 26 24  1  0
 27 21  1  0
 28 27  1  0
 28 29  1  6
 30 29  2  0
 31 28  1  0
 32 31  1  0
 33 32  1  0
 33 27  1  0
 34 29  1  0
 35 34  1  0
 36 35  1  0
 37 36  2  0
 35 38  1  6
 39 38  1  0
 41 40  1  0
 41 42  1  6
 43 42  2  0
 44 41  1  0
 45 44  1  0
 46 45  1  0
 46 40  1  0
 48 47  1  6
 49 48  1  0
 50 49  2  0
 51 48  1  0
 52 51  1  0
 53 52  2  0
 54 52  1  0
 55 53  1  0
 56 54  2  0
 57 56  1  0
 57 55  2  0
 58 57  1  0
 60 59  1  6
 61 60  1  0
 62 61  2  0
 63 60  1  0
 64 63  1  0
 65 64  2  0
 66 64  1  0
 68 67  1  6
 69 68  1  0
 70 69  2  0
 71 68  1  0
 72 71  1  0
 73 72  1  0
 74 73  1  0
 76 75  1  6
 77 76  1  0
 78 77  2  0
 79 76  1  0
 80 79  1  0
 81 80  1  0
 82 81  2  0
 83 81  1  0
 85 84  1  6
 86 85  1  0
 87 86  2  0
 88 85  1  0
 89 88  1  0
 90 86  1  0
 91 90  1  0
 92 91  1  0
 93 92  2  0
 91 94  1  6
 95 94  1  0
 96 95  2  0
 97 95  1  0
 98 96  1  0
 99 98  1  0
 99 97  2  0
100 97  1  0
101 99  1  0
102100  2  0
103102  1  0
103101  2  0
104 92  1  0
105104  1  0
106105  1  0
107106  2  0
108106  1  0
109108  1  0
110109  1  0
111110  2  0
109112  1  6
113112  1  0
114113  2  0
115113  1  0
116110  1  0
117116  1  0
118117  1  0
119118  2  0
121120  1  6
122121  1  0
123122  2  0
124121  1  0
125124  1  0
126125  1  0
127126  1  0
128127  1  0
M  END
$$$$
