
     RDKit          3D

136133  0  0  0  0  0  0  0  0999 V2000
    4.8180   20.3580   26.5930 N   0  0  0  0  0  0  0  0  0  0  0  0
    6.0310   19.6280   26.1960 C   0  0  2  0  0  0  0  0  0  0  0  0
    7.2740   20.0790   26.9270 C   0  0  0  0  0  0  0  0  0  0  0  0
    8.0480   19.2350   27.4290 O   0  0  0  0  0  0  0  0  0  0  0  0
    6.2440   19.6570   24.6700 C   0  0  0  0  0  0  0  0  0  0  0  0
    5.0800   19.0870   24.0780 O   0  0  0  0  0  0  0  0  0  0  0  0
    7.4870   21.3870   27.0150 N   0  0  0  0  0  0  0  0  0  0  0  0
    8.6760   21.8630   27.7350 C   0  0  2  0  0  0  0  0  0  0  0  0
    8.7080   21.3200   29.1630 C   0  0  0  0  0  0  0  0  0  0  0  0
    9.7680   20.8690   29.6000 O   0  0  0  0  0  0  0  0  0  0  0  0
    8.7690   23.3370   27.7150 C   0  0  0  0  0  0  0  0  0  0  0  0
    9.6010   17.4860   28.9990 N   0  0  0  0  0  0  0  0  0  0  0  0
   10.9400   17.2360   28.4790 C   0  0  2  0  0  0  0  0  0  0  0  0
   11.9850   17.6660   29.5110 C   0  0  0  0  0  0  0  0  0  0  0  0
   13.0550   17.0590   29.6130 O   0  0  0  0  0  0  0  0  0  0  0  0
   11.1410   17.8910   27.1200 C   0  0  2  0  0  0  0  0  0  0  0  0
   10.2430   17.1630   26.0760 C   0  0  0  0  0  0  0  0  0  0  0  0
   12.6600   17.8020   26.6650 C   0  0  0  0  0  0  0  0  0  0  0  0
   10.0570   17.9570   24.7840 C   0  0  0  0  0  0  0  0  0  0  0  0
   13.3640   23.0670   26.2140 N   0  0  0  0  0  0  0  0  0  0  0  0
   13.0550   23.2470   24.7720 C   0  0  2  0  0  0  0  0  0  0  0  0
   12.6260   24.6760   24.4910 C   0  0  0  0  0  0  0  0  0  0  0  0
   11.5000   25.0960   24.7990 O   0  0  0  0  0  0  0  0  0  0  0  0
   12.0500   22.1860   24.2520 C   0  0  0  0  0  0  0  0  0  0  0  0
   11.8880   22.3020   22.7610 C   0  0  0  0  0  0  0  0  0  0  0  0
   12.5850   20.8410   24.5660 C   0  0  0  0  0  0  0  0  0  0  0  0
   12.5720   26.0440   21.5290 N   0  0  0  0  0  0  0  0  0  0  0  0
   11.8380   26.1790   20.2910 C   0  0  2  0  0  0  0  0  0  0  0  0
   10.3960   25.6800   20.4020 C   0  0  0  0  0  0  0  0  0  0  0  0
   10.0680   24.8750   21.2980 O   0  0  0  0  0  0  0  0  0  0  0  0
   12.5410   25.5280   19.1010 C   0  0  0  0  0  0  0  0  0  0  0  0
   11.8150   25.7760   17.7110 C   0  0  0  0  0  0  0  0  0  0  0  0
   11.6220   27.3030   17.2820 C   0  0  0  0  0  0  0  0  0  0  0  0
   12.5050   27.7630   16.4980 O   0  0  0  0  0  0  0  0  0  0  0  0
   10.6070   28.0110   17.7000 O   0  0  0  0  0  0  0  0  0  0  0  0
    9.5280   26.2020   19.5250 N   0  0  0  0  0  0  0  0  0  0  0  0
    8.1590   25.6960   19.4750 C   0  0  2  0  0  0  0  0  0  0  0  0
    7.9800   24.6830   18.3260 C   0  0  0  0  0  0  0  0  0  0  0  0
    8.0760   25.0510   17.1480 O   0  0  0  0  0  0  0  0  0  0  0  0
    7.1490   26.8340   19.3560 C   0  0  0  0  0  0  0  0  0  0  0  0
    5.7100   26.3560   19.2550 C   0  0  0  0  0  0  0  0  0  0  0  0
    5.1910   25.4650   20.1940 C   0  0  0  0  0  0  0  0  0  0  0  0
    4.8600   26.8260   18.2450 C   0  0  0  0  0  0  0  0  0  0  0  0
    3.9230   25.0630   20.1550 C   0  0  0  0  0  0  0  0  0  0  0  0
    3.5410   26.3920   18.1830 C   0  0  0  0  0  0  0  0  0  0  0  0
    3.0780   25.5180   19.1540 C   0  0  0  0  0  0  0  0  0  0  0  0
    1.7850   25.0370   19.1390 O   0  0  0  0  0  0  0  0  0  0  0  0
    7.7490   23.4260   18.6980 N   0  0  0  0  0  0  0  0  0  0  0  0
    7.2890   22.3950   17.7780 C   0  0  2  0  0  0  0  0  0  0  0  0
    5.9410   21.8580   18.2950 C   0  0  0  0  0  0  0  0  0  0  0  0
    5.9300   21.2070   19.3260 O   0  0  0  0  0  0  0  0  0  0  0  0
    8.3420   21.2690   17.6280 C   0  0  0  0  0  0  0  0  0  0  0  0
    8.1460   20.4720   16.3400 C   0  0  0  0  0  0  0  0  0  0  0  0
    7.9570   21.0980   15.2880 O   0  0  0  0  0  0  0  0  0  0  0  0
    8.1770   19.2370   16.3780 O   0  0  0  0  0  0  0  0  0  0  0  0
    4.8030   22.1750   17.6130 N   0  0  0  0  0  0  0  0  0  0  0  0
    3.4440   21.7790   18.1350 C   0  0  2  0  0  0  0  0  0  0  0  0
    3.2990   20.2770   18.1850 C   0  0  0  0  0  0  0  0  0  0  0  0
    3.7720   19.5620   17.2800 O   0  0  0  0  0  0  0  0  0  0  0  0
    2.4310   22.3820   17.1330 C   0  0  0  0  0  0  0  0  0  0  0  0
    3.2130   22.8940   15.9790 C   0  0  0  0  0  0  0  0  0  0  0  0
    4.7330   22.8840   16.3170 C   0  0  0  0  0  0  0  0  0  0  0  0
    2.7330   19.7870   19.2780 N   0  0  0  0  0  0  0  0  0  0  0  0
    2.4990   18.3640   19.5010 C   0  0  2  0  0  0  0  0  0  0  0  0
    1.1790   17.8920   18.8890 C   0  0  0  0  0  0  0  0  0  0  0  0
    0.1690   18.6130   18.8980 O   0  0  0  0  0  0  0  0  0  0  0  0
    2.4270   18.1570   21.0300 C   0  0  2  0  0  0  0  0  0  0  0  0
    3.6940   18.5020   21.5470 O   0  0  0  0  0  0  0  0  0  0  0  0
    2.0890   16.7080   21.5010 C   0  0  0  0  0  0  0  0  0  0  0  0
    1.2020   16.6740   18.3740 N   0  0  0  0  0  0  0  0  0  0  0  0
   -0.0230   15.9370   18.1100 C   0  0  2  0  0  0  0  0  0  0  0  0
   -0.2110   14.9800   19.2810 C   0  0  0  0  0  0  0  0  0  0  0  0
   -1.1760   15.1440   20.0430 O   0  0  0  0  0  0  0  0  0  0  0  0
    0.0000   15.2000   16.7440 C   0  0  2  0  0  0  0  0  0  0  0  0
    0.1140   16.2450   15.6180 C   0  0  0  0  0  0  0  0  0  0  0  0
   -1.2590   14.3580   16.5760 C   0  0  0  0  0  0  0  0  0  0  0  0
    0.2930   15.6860   14.2130 C   0  0  0  0  0  0  0  0  0  0  0  0
    0.7160   14.0200   19.4530 N   0  0  0  0  0  0  0  0  0  0  0  0
    0.7870   13.2390   20.7100 C   0  0  2  0  0  0  0  0  0  0  0  0
    2.1430   12.5640   20.9030 C   0  0  0  0  0  0  0  0  0  0  0  0
    2.7220   12.0360   19.9380 O   0  0  0  0  0  0  0  0  0  0  0  0
   -0.3490   12.2360   20.7740 C   0  0  0  0  0  0  0  0  0  0  0  0
   -0.7030   11.7910   22.1280 C   0  0  0  0  0  0  0  0  0  0  0  0
   -1.9880   10.9900   22.1080 C   0  0  0  0  0  0  0  0  0  0  0  0
   -3.0660   11.5970   22.1970 O   0  0  0  0  0  0  0  0  0  0  0  0
   -1.9140    9.7510   22.0050 O   0  0  0  0  0  0  0  0  0  0  0  0
    2.6520   12.5930   22.1500 N   0  0  0  0  0  0  0  0  0  0  0  0
    3.9470   12.0360   22.4800 C   0  0  2  0  0  0  0  0  0  0  0  0
    3.8570   11.3110   23.8180 C   0  0  0  0  0  0  0  0  0  0  0  0
    2.9930   11.6110   24.6340 O   0  0  0  0  0  0  0  0  0  0  0  0
    5.0180   13.1480   22.5170 C   0  0  0  0  0  0  0  0  0  0  0  0
    5.5480   13.4670   21.1230 C   0  0  0  0  0  0  0  0  0  0  0  0
    5.9860   12.5330   20.4550 O   0  0  0  0  0  0  0  0  0  0  0  0
    5.4850   14.6130   20.6630 O   0  0  0  0  0  0  0  0  0  0  0  0
    4.7700   10.3810   24.0340 N   0  0  0  0  0  0  0  0  0  0  0  0
    4.7090    9.5180   25.1900 C   0  0  2  0  0  0  0  0  0  0  0  0
    6.1180    9.4260   25.7730 C   0  0  0  0  0  0  0  0  0  0  0  0
    7.0820    9.2050   25.0530 O   0  0  0  0  0  0  0  0  0  0  0  0
    4.2000    8.1310   24.7720 C   0  0  0  0  0  0  0  0  0  0  0  0
    4.2300    7.2750   25.8780 O   0  0  0  0  0  0  0  0  0  0  0  0
    6.2120    9.6070   27.0870 N   0  0  0  0  0  0  0  0  0  0  0  0
    7.4790    9.5230   27.8080 C   0  0  2  0  0  0  0  0  0  0  0  0
    7.3300    8.5960   29.0380 C   0  0  0  0  0  0  0  0  0  0  0  0
    6.2600    8.5060   29.6290 O   0  0  0  0  0  0  0  0  0  0  0  0
    7.8820   10.9290   28.2690 C   0  0  0  0  0  0  0  0  0  0  0  0
    8.1090   11.9280   27.1590 C   0  0  0  0  0  0  0  0  0  0  0  0
    7.0670   12.7140   26.6600 C   0  0  0  0  0  0  0  0  0  0  0  0
    9.4050   12.1020   26.6220 C   0  0  0  0  0  0  0  0  0  0  0  0
    7.2990   13.6360   25.6210 C   0  0  0  0  0  0  0  0  0  0  0  0
    9.6600   13.0480   25.6250 C   0  0  0  0  0  0  0  0  0  0  0  0
    8.6130   13.7960   25.1230 C   0  0  0  0  0  0  0  0  0  0  0  0
    8.9000   14.6640   24.0920 O   0  0  0  0  0  0  0  0  0  0  0  0
    1.6580   11.1000   28.9830 N   0  0  0  0  0  0  0  0  0  0  0  0
    1.1210   11.4880   27.6940 C   0  0  2  0  0  0  0  0  0  0  0  0
    1.1070   13.0070   27.5490 C   0  0  0  0  0  0  0  0  0  0  0  0
    0.4770   13.6830   28.3550 O   0  0  0  0  0  0  0  0  0  0  0  0
   -0.2930   10.9410   27.5490 C   0  0  0  0  0  0  0  0  0  0  0  0
   -0.7910   10.9810   26.1050 C   0  0  0  0  0  0  0  0  0  0  0  0
    0.0750    9.9560   25.3840 C   0  0  0  0  0  0  0  0  0  0  0  0
   -2.2400   10.5140   26.0810 C   0  0  0  0  0  0  0  0  0  0  0  0
    1.8160   13.5240   26.5330 N   0  0  0  0  0  0  0  0  0  0  0  0
    1.9380   14.9360   26.2460 C   0  0  2  0  0  0  0  0  0  0  0  0
    1.0000   15.1320   25.0690 C   0  0  0  0  0  0  0  0  0  0  0  0
    1.2250   14.5370   23.9750 O   0  0  0  0  0  0  0  0  0  0  0  0
    3.4140   15.2150   25.8470 C   0  0  0  0  0  0  0  0  0  0  0  0
    3.6510   16.6410   25.3910 C   0  0  0  0  0  0  0  0  0  0  0  0
    2.8160   17.5190   25.7370 O   0  0  0  0  0  0  0  0  0  0  0  0
    4.6710   16.9070   24.6800 O   0  0  0  0  0  0  0  0  0  0  0  0
   -8.9180   13.0640   19.8580 N   0  0  0  0  0  0  0  0  0  0  0  0
   -8.0010   12.1050   20.4830 C   0  0  2  0  0  0  0  0  0  0  0  0
   -8.2430   12.0680   21.9800 C   0  0  0  0  0  0  0  0  0  0  0  0
   -7.8590   11.1140   22.6620 O   0  0  0  0  0  0  0  0  0  0  0  0
   -6.5510   12.5030   20.2040 C   0  0  0  0  0  0  0  0  0  0  0  0
   -5.9030   11.7950   19.0100 C   0  0  0  0  0  0  0  0  0  0  0  0
   -4.2910   12.5340   18.5610 S   0  0  0  0  0  0  0  0  0  0  0  0
   -4.7930   13.3800   17.0480 C   0  0  0  0  0  0  0  0  0  0  0  0
  2  1  1  6
  3  2  1  0
  4  3  2  0
  5  2  1  0
  6  5  1  0
  7  3  1  0
  8  7  1  0
  9  8  1  0
 10  9  2  0
  8 11  1  1
 13 12  1  1
 14 13  1  0
 15 14  2  0
 16 13  1  0
 17 16  1  0
 16 18  1  6
 19 17  1  0
 21 20  1  1
 22 21  1  0
 23 22  2  0
 24 21  1  0
 25 24  1  0
 26 24  1  0
 28 27  1  1
 29 28  1  0
 30 29  2  0
 31 28  1  0
 32 31  1  0
 33 32  1  0
 34 33  2  0
 35 33  1  0
 36 29  1  0
 37 36  1  0
 38 37  1  0
 39 38  2  0
 37 40  1  6
 41 40  1  0
 42 41  2  0
 43 41  1  0
 44 42  1  0
 45 43  2  0
 46 45  1  0
 46 44  2  0
 47 46  1  0
 48 38  1  0
 49 48  1  0
 50 49  1  0
 51 50  2  0
 49 52  1  1
 53 52  1  0
 54 53  2  0
 55 53  1  0
 56 50  1  0
 57 56  1  0
 57 58  1  6
 59 58  2  0
 60 57  1  0
 61 60  1  0
 62 61  1  0
 62 56  1  0
 63 58  1  0
 64 63  1  1
 65 64  1  0
 66 65  2  0
 67 64  1  0
 68 67  1  0
 67 69  1  6
 70 65  1  0
 71 70  1  1
 72 71  1  0
 73 72  2  0
 74 71  1  0
 75 74  1  0
 74 76  1  6
 77 75  1  0
 78 72  1  0
 79 78  1  0
 80 79  1  0
 81 80  2  0
 79 82  1  6
 83 82  1  0
 84 83  1  0
 85 84  2  0
 86 84  1  0
 87 80  1  0
 88 87  1  0
 89 88  1  0
 90 89  2  0
 88 91  1  1
 92 91  1  0
 93 92  2  0
 94 92  1  0
 95 89  1  0
 96 95  1  0
 97 96  1  0
 98 97  2  0
 96 99  1  6
100 99  1  0
101 97  1  0
102101  1  0
103102  1  0
104103  2  0
102105  1  1
106105  1  0
107106  2  0
108106  1  0
109107  1  0
110108  2  0
111110  1  0
111109  2  0
112111  1  0
114113  1  1
115114  1  0
116115  2  0
117114  1  0
118117  1  0
119118  1  0
120118  1  0
121115  1  0
122121  1  0
123122  1  0
124123  2  0
122125  1  6
126125  1  0
127126  2  0
128126  1  0
130129  1  6
131130  1  0
132131  2  0
133130  1  0
134133  1  0
135134  1  0
136135  1  0
M  END
$$$$
