
     RDKit          3D

152148  0  0  0  0  0  0  0  0999 V2000
   -3.3420    6.4560   28.7810 N   0  0  0  0  0  0  0  0  0  0  0  0
   -3.1150    7.2910   29.9550 C   0  0  2  0  0  0  0  0  0  0  0  0
   -1.8350    8.1340   29.8390 C   0  0  0  0  0  0  0  0  0  0  0  0
   -1.8080    9.2900   30.2560 O   0  0  0  0  0  0  0  0  0  0  0  0
   -3.1020    6.4140   31.2190 C   0  0  0  0  0  0  0  0  0  0  0  0
   -2.9430    7.0340   32.6120 C   0  0  0  0  0  0  0  0  0  0  0  0
   -3.9450    8.1350   32.8570 C   0  0  0  0  0  0  0  0  0  0  0  0
   -3.1040    5.9250   33.6360 C   0  0  0  0  0  0  0  0  0  0  0  0
   -2.5320   11.0120   27.5220 N   0  0  0  0  0  0  0  0  0  0  0  0
   -3.3130   11.9360   28.3200 C   0  0  2  0  0  0  0  0  0  0  0  0
   -2.3840   12.8010   29.1800 C   0  0  0  0  0  0  0  0  0  0  0  0
   -2.5520   14.0270   29.2220 O   0  0  0  0  0  0  0  0  0  0  0  0
   -4.3090   11.1340   29.1650 C   0  0  0  0  0  0  0  0  0  0  0  0
   -5.6340   11.6170   29.7540 C   0  0  0  0  0  0  0  0  0  0  0  0
   -6.5510   12.3580   28.7620 C   0  0  0  0  0  0  0  0  0  0  0  0
   -6.3750   10.4250   30.3840 C   0  0  0  0  0  0  0  0  0  0  0  0
   -1.3790   12.2000   29.8230 N   0  0  0  0  0  0  0  0  0  0  0  0
   -0.4270   13.0080   30.5910 C   0  0  2  0  0  0  0  0  0  0  0  0
    0.3420   14.0100   29.7200 C   0  0  0  0  0  0  0  0  0  0  0  0
    0.5760   15.1400   30.1550 O   0  0  0  0  0  0  0  0  0  0  0  0
    0.5570   12.1700   31.4320 C   0  0  2  0  0  0  0  0  0  0  0  0
    1.2930   11.2730   30.5950 O   0  0  0  0  0  0  0  0  0  0  0  0
   -0.1900   11.4060   32.4810 C   0  0  0  0  0  0  0  0  0  0  0  0
    0.7190   13.5970   28.5030 N   0  0  0  0  0  0  0  0  0  0  0  0
    1.3530   14.4870   27.5150 C   0  0  2  0  0  0  0  0  0  0  0  0
    0.4190   15.6800   27.2110 C   0  0  0  0  0  0  0  0  0  0  0  0
    0.8720   16.8450   27.1540 O   0  0  0  0  0  0  0  0  0  0  0  0
    1.6950   13.7360   26.2040 C   0  0  0  0  0  0  0  0  0  0  0  0
    2.2110   14.6950   25.1070 C   0  0  0  0  0  0  0  0  0  0  0  0
    2.7170   12.6200   26.4600 C   0  0  0  0  0  0  0  0  0  0  0  0
   -0.8730   15.3840   27.0280 N   0  0  0  0  0  0  0  0  0  0  0  0
   -1.8750   16.4040   26.7640 C   0  0  2  0  0  0  0  0  0  0  0  0
   -2.0480   17.3630   27.9570 C   0  0  0  0  0  0  0  0  0  0  0  0
   -2.3200   18.5520   27.7830 O   0  0  0  0  0  0  0  0  0  0  0  0
   -3.2360   15.7850   26.4030 C   0  0  0  0  0  0  0  0  0  0  0  0
   -3.2600   14.9290   25.1670 C   0  0  0  0  0  0  0  0  0  0  0  0
   -2.3520   14.9210   24.1510 C   0  0  0  0  0  0  0  0  0  0  0  0
   -4.2630   13.9690   24.8110 C   0  0  0  0  0  0  0  0  0  0  0  0
   -2.7180   14.0190   23.1930 N   0  0  0  0  0  0  0  0  0  0  0  0
   -3.8890   13.4190   23.5690 C   0  0  0  0  0  0  0  0  0  0  0  0
   -5.4390   13.5110   25.4290 C   0  0  0  0  0  0  0  0  0  0  0  0
   -4.6560   12.4390   22.9200 C   0  0  0  0  0  0  0  0  0  0  0  0
   -6.2000   12.5470   24.7810 C   0  0  0  0  0  0  0  0  0  0  0  0
   -5.8020   12.0180   23.5460 C   0  0  0  0  0  0  0  0  0  0  0  0
   -1.9430   16.8240   29.1640 N   0  0  0  0  0  0  0  0  0  0  0  0
   -2.0010   17.6320   30.3780 C   0  0  0  0  0  0  0  0  0  0  0  0
   -0.8040   18.5680   30.4640 C   0  0  0  0  0  0  0  0  0  0  0  0
   -0.9620   19.7460   30.6840 O   0  0  0  0  0  0  0  0  0  0  0  0
    0.3890   18.0240   30.2820 N   0  0  0  0  0  0  0  0  0  0  0  0
    1.6180   18.7930   30.3390 C   0  0  2  0  0  0  0  0  0  0  0  0
    1.7180   19.8770   29.2530 C   0  0  0  0  0  0  0  0  0  0  0  0
    2.1480   20.9850   29.5360 O   0  0  0  0  0  0  0  0  0  0  0  0
    2.8380   17.8710   30.3240 C   0  0  2  0  0  0  0  0  0  0  0  0
    2.9080   17.0900   31.6420 C   0  0  0  0  0  0  0  0  0  0  0  0
    4.1230   18.6590   30.0760 C   0  0  0  0  0  0  0  0  0  0  0  0
    3.6850   15.8060   31.5390 C   0  0  0  0  0  0  0  0  0  0  0  0
   -0.7890   21.4300   27.8390 N   0  0  0  0  0  0  0  0  0  0  0  0
   -1.7130   22.4920   28.2500 C   0  0  2  0  0  0  0  0  0  0  0  0
   -1.1630   23.4130   29.3560 C   0  0  0  0  0  0  0  0  0  0  0  0
   -1.3490   24.6370   29.3040 O   0  0  0  0  0  0  0  0  0  0  0  0
   -3.0900   21.9580   28.6850 C   0  0  0  0  0  0  0  0  0  0  0  0
   -4.0600   23.1140   28.8320 C   0  0  0  0  0  0  0  0  0  0  0  0
   -5.4460   22.7450   29.2730 C   0  0  0  0  0  0  0  0  0  0  0  0
   -5.8380   23.0710   30.3890 O   0  0  0  0  0  0  0  0  0  0  0  0
   -6.2190   22.1020   28.3940 N   0  0  0  0  0  0  0  0  0  0  0  0
   -0.5170   22.8280   30.3650 N   0  0  0  0  0  0  0  0  0  0  0  0
    0.0040   23.6300   31.4760 C   0  0  2  0  0  0  0  0  0  0  0  0
    1.1860   24.4470   30.9950 C   0  0  0  0  0  0  0  0  0  0  0  0
    1.4040   25.5600   31.4510 O   0  0  0  0  0  0  0  0  0  0  0  0
    0.4030   22.7530   32.6710 C   0  0  0  0  0  0  0  0  0  0  0  0
   -0.7410   21.9470   33.2840 C   0  0  0  0  0  0  0  0  0  0  0  0
   -0.2440   20.8670   34.2660 C   0  0  0  0  0  0  0  0  0  0  0  0
   -1.7090   22.8940   33.9670 C   0  0  0  0  0  0  0  0  0  0  0  0
   -0.0530   27.4090   29.0260 N   0  0  0  0  0  0  0  0  0  0  0  0
   -0.6520   28.4230   29.9030 C   0  0  2  0  0  0  0  0  0  0  0  0
    0.3700   29.2410   30.6960 C   0  0  0  0  0  0  0  0  0  0  0  0
    0.1390   30.4270   30.9600 O   0  0  0  0  0  0  0  0  0  0  0  0
   -1.6990   27.7980   30.8210 C   0  0  0  0  0  0  0  0  0  0  0  0
   -3.0010   27.4520   30.0890 C   0  0  0  0  0  0  0  0  0  0  0  0
   -3.8310   26.4180   30.8170 C   0  0  0  0  0  0  0  0  0  0  0  0
   -4.3380   26.8980   32.1070 N   0  0  0  0  0  0  0  0  0  0  0  0
   -5.0260   26.1550   32.9850 C   0  0  0  0  0  0  0  0  0  0  0  0
   -5.3030   24.8750   32.7290 N   0  0  0  0  0  0  0  0  0  0  0  0
   -5.4290   26.6960   34.1340 N   0  0  0  0  0  0  0  0  0  0  0  0
    0.8520    6.6750   37.7180 N   0  0  0  0  0  0  0  0  0  0  0  0
   -0.0360    7.2630   38.7200 C   0  0  2  0  0  0  0  0  0  0  0  0
    0.6300    8.4300   39.4370 C   0  0  0  0  0  0  0  0  0  0  0  0
   -0.0480    9.3830   39.8540 O   0  0  0  0  0  0  0  0  0  0  0  0
   -0.4930    6.2350   39.7670 C   0  0  0  0  0  0  0  0  0  0  0  0
   -1.4000    5.1090   39.2390 C   0  0  0  0  0  0  0  0  0  0  0  0
   -2.4180    5.5800   38.2080 C   0  0  0  0  0  0  0  0  0  0  0  0
   -3.2190    6.4850   38.4690 O   0  0  0  0  0  0  0  0  0  0  0  0
   -2.4010    4.9550   37.0320 N   0  0  0  0  0  0  0  0  0  0  0  0
    2.8350   10.4860   38.0040 N   0  0  0  0  0  0  0  0  0  0  0  0
    2.7680   11.6130   37.0700 C   0  0  2  0  0  0  0  0  0  0  0  0
    1.3510   12.2230   36.9560 C   0  0  0  0  0  0  0  0  0  0  0  0
    1.1990   13.4390   36.7930 O   0  0  0  0  0  0  0  0  0  0  0  0
    3.3020   11.2250   35.6820 C   0  0  2  0  0  0  0  0  0  0  0  0
    2.5070   10.1610   35.1460 O   0  0  0  0  0  0  0  0  0  0  0  0
    4.7520   10.7730   35.7910 C   0  0  0  0  0  0  0  0  0  0  0  0
    0.3260   11.3860   37.0430 N   0  0  0  0  0  0  0  0  0  0  0  0
   -1.0530   11.8570   37.0080 C   0  0  2  0  0  0  0  0  0  0  0  0
   -1.2990   12.7660   38.2140 C   0  0  0  0  0  0  0  0  0  0  0  0
   -1.9050   13.8350   38.0880 O   0  0  0  0  0  0  0  0  0  0  0  0
   -2.0740   10.6710   36.9990 C   0  0  0  0  0  0  0  0  0  0  0  0
   -3.4730   11.1360   37.4170 C   0  0  0  0  0  0  0  0  0  0  0  0
   -2.1000    9.9680   35.6340 C   0  0  0  0  0  0  0  0  0  0  0  0
   -0.8210   12.3240   39.3710 N   0  0  0  0  0  0  0  0  0  0  0  0
   -0.9250   13.0800   40.6100 C   0  0  2  0  0  0  0  0  0  0  0  0
   -0.1780   14.4120   40.5330 C   0  0  0  0  0  0  0  0  0  0  0  0
   -0.7060   15.4320   40.9780 O   0  0  0  0  0  0  0  0  0  0  0  0
   -0.4370   12.2560   41.8020 C   0  0  0  0  0  0  0  0  0  0  0  0
   -0.5100   12.9840   43.1090 C   0  0  0  0  0  0  0  0  0  0  0  0
   -1.5410   12.9520   43.9930 C   0  0  0  0  0  0  0  0  0  0  0  0
    0.4860   13.8700   43.6850 C   0  0  0  0  0  0  0  0  0  0  0  0
   -1.2610   13.7510   45.0830 N   0  0  0  0  0  0  0  0  0  0  0  0
   -0.0250   14.3230   44.9210 C   0  0  0  0  0  0  0  0  0  0  0  0
    1.7500   14.3150   43.2750 C   0  0  0  0  0  0  0  0  0  0  0  0
    0.6860   15.2030   45.7560 C   0  0  0  0  0  0  0  0  0  0  0  0
    2.4610   15.1920   44.1010 C   0  0  0  0  0  0  0  0  0  0  0  0
    1.9250   15.6260   45.3260 C   0  0  0  0  0  0  0  0  0  0  0  0
    0.4450   16.1900   37.7720 N   0  0  0  0  0  0  0  0  0  0  0  0
   -0.2520   17.1040   36.8570 C   0  0  2  0  0  0  0  0  0  0  0  0
   -1.4750   17.7050   37.5650 C   0  0  0  0  0  0  0  0  0  0  0  0
   -1.6940   18.9100   37.5640 O   0  0  0  0  0  0  0  0  0  0  0  0
   -0.5830   16.4210   35.5070 C   0  0  2  0  0  0  0  0  0  0  0  0
    0.7310   16.0830   34.7900 C   0  0  0  0  0  0  0  0  0  0  0  0
   -1.4850   17.3130   34.6240 C   0  0  0  0  0  0  0  0  0  0  0  0
    0.6830   14.8720   33.8530 C   0  0  0  0  0  0  0  0  0  0  0  0
   -2.2260   16.8390   38.2160 N   0  0  0  0  0  0  0  0  0  0  0  0
   -3.4100   17.2120   38.9470 C   0  0  2  0  0  0  0  0  0  0  0  0
   -3.1030   18.2840   39.9970 C   0  0  0  0  0  0  0  0  0  0  0  0
   -3.8530   19.2570   40.1540 O   0  0  0  0  0  0  0  0  0  0  0  0
   -3.9660   15.9600   39.6120 C   0  0  0  0  0  0  0  0  0  0  0  0
   -5.4380   16.0230   39.9270 C   0  0  0  0  0  0  0  0  0  0  0  0
   -6.0000   14.6210   40.1890 C   0  0  0  0  0  0  0  0  0  0  0  0
   -7.4500   14.7220   40.6730 C   0  0  0  0  0  0  0  0  0  0  0  0
   -7.9230   13.4340   41.2210 N   0  0  0  0  0  0  0  0  0  0  0  0
   -2.1630   21.6940   38.2900 N   0  0  0  0  0  0  0  0  0  0  0  0
   -3.4070   22.3100   37.8700 C   0  0  2  0  0  0  0  0  0  0  0  0
   -4.1260   22.9870   39.0510 C   0  0  0  0  0  0  0  0  0  0  0  0
   -4.6380   24.1010   38.9180 O   0  0  0  0  0  0  0  0  0  0  0  0
   -4.2930   21.2530   37.2150 C   0  0  0  0  0  0  0  0  0  0  0  0
   -5.7190   21.6910   36.9720 C   0  0  0  0  0  0  0  0  0  0  0  0
   -5.8020   22.7420   35.8990 C   0  0  0  0  0  0  0  0  0  0  0  0
   -4.8530   22.9420   35.1390 O   0  0  0  0  0  0  0  0  0  0  0  0
   -6.9330   23.4090   35.8190 N   0  0  0  0  0  0  0  0  0  0  0  0
   -4.1450   22.3040   40.1950 N   0  0  0  0  0  0  0  0  0  0  0  0
   -4.7420   22.8170   41.4290 C   0  0  2  0  0  0  0  0  0  0  0  0
   -4.0180   24.0320   41.9950 C   0  0  0  0  0  0  0  0  0  0  0  0
   -4.6600   24.9090   42.5640 O   0  0  0  0  0  0  0  0  0  0  0  0
   -4.8080   21.7210   42.4890 C   0  0  0  0  0  0  0  0  0  0  0  0
  2  1  1  6
  3  2  1  0
  4  3  2  0
  5  2  1  0
  6  5  1  0
  7  6  1  0
  8  6  1  0
 10  9  1  1
 11 10  1  0
 12 11  2  0
 13 10  1  0
 14 13  1  0
 15 14  1  0
 16 14  1  0
 17 11  1  0
 18 17  1  6
 19 18  1  0
 20 19  2  0
 21 18  1  0
 22 21  1  0
 21 23  1  1
 24 19  1  0
 25 24  1  1
 26 25  1  0
 27 26  2  0
 28 25  1  0
 29 28  1  0
 30 28  1  0
 31 26  1  0
 32 31  1  0
 33 32  1  0
 34 33  2  0
 32 35  1  1
 36 35  1  0
 37 36  2  0
 38 36  1  0
 39 37  1  0
 40 39  1  0
 40 38  2  0
 41 38  1  0
 42 40  1  0
 43 41  2  0
 44 43  1  0
 44 42  2  0
 45 33  1  0
 46 45  1  0
 47 46  1  0
 48 47  2  0
 49 47  1  0
 50 49  1  6
 51 50  1  0
 52 51  2  0
 53 50  1  0
 54 53  1  0
 53 55  1  1
 56 54  1  0
 58 57  1  1
 59 58  1  0
 60 59  2  0
 61 58  1  0
 62 61  1  0
 63 62  1  0
 64 63  2  0
 65 63  1  0
 66 59  1  0
 67 66  1  0
 68 67  1  0
 69 68  2  0
 67 70  1  1
 71 70  1  0
 72 71  1  0
 73 71  1  0
 75 74  1  1
 76 75  1  0
 77 76  2  0
 78 75  1  0
 79 78  1  0
 80 79  1  0
 81 80  1  0
 82 81  1  0
 83 82  1  0
 84 82  2  0
 86 85  1  6
 87 86  1  0
 88 87  2  0
 89 86  1  0
 90 89  1  0
 91 90  1  0
 92 91  2  0
 93 91  1  0
 95 94  1  1
 96 95  1  0
 97 96  2  0
 98 95  1  0
 99 98  1  0
 98100  1  1
101 96  1  0
102101  1  1
103102  1  0
104103  2  0
105102  1  0
106105  1  0
107105  1  0
108103  1  0
109108  1  0
110109  1  0
111110  2  0
109112  1  1
113112  1  0
114113  2  0
115113  1  0
116114  1  0
117116  1  0
117115  2  0
118115  1  0
119117  1  0
120118  2  0
121120  1  0
121119  2  0
123122  1  1
124123  1  0
125124  2  0
126123  1  0
127126  1  0
126128  1  6
129127  1  0
130124  1  0
131130  1  0
132131  1  0
133132  2  0
131134  1  1
135134  1  0
136135  1  0
137136  1  0
138137  1  0
140139  1  1
141140  1  0
142141  2  0
143140  1  0
144143  1  0
145144  1  0
146145  2  0
147145  1  0
148141  1  0
149148  1  0
150149  1  0
151150  2  0
149152  1  1
M  END
$$$$
