
     RDKit          3D

142139  0  0  0  0  0  0  0  0999 V2000
  -22.5390   25.1870  -68.4010 N   0  0  0  0  0  0  0  0  0  0  0  0
  -23.0940   24.7590  -67.1290 C   0  0  2  0  0  0  0  0  0  0  0  0
  -24.5910   24.5900  -67.3230 C   0  0  0  0  0  0  0  0  0  0  0  0
  -25.2870   25.5600  -67.6000 O   0  0  0  0  0  0  0  0  0  0  0  0
  -22.8050   25.8210  -66.0660 C   0  0  0  0  0  0  0  0  0  0  0  0
  -23.2300   25.4020  -64.6770 C   0  0  0  0  0  0  0  0  0  0  0  0
  -24.3570   24.9070  -64.5220 O   0  0  0  0  0  0  0  0  0  0  0  0
  -22.4350   25.5940  -63.7250 O   0  0  0  0  0  0  0  0  0  0  0  0
  -26.6940   27.0630  -64.9790 N   0  0  0  0  0  0  0  0  0  0  0  0
  -26.5670   28.5170  -65.0060 C   0  0  2  0  0  0  0  0  0  0  0  0
  -26.4940   29.0800  -66.4140 C   0  0  0  0  0  0  0  0  0  0  0  0
  -26.6830   30.2780  -66.6260 O   0  0  0  0  0  0  0  0  0  0  0  0
  -25.2880   28.9610  -64.2870 C   0  0  2  0  0  0  0  0  0  0  0  0
  -24.1550   28.4770  -65.0150 O   0  0  0  0  0  0  0  0  0  0  0  0
  -25.2540   28.4050  -62.8800 C   0  0  0  0  0  0  0  0  0  0  0  0
  -23.8220   29.2730  -68.0690 N   0  0  0  0  0  0  0  0  0  0  0  0
  -22.5180   29.9200  -68.2500 C   0  0  2  0  0  0  0  0  0  0  0  0
  -21.4790   29.0360  -68.9180 C   0  0  0  0  0  0  0  0  0  0  0  0
  -21.5100   27.8180  -68.7950 O   0  0  0  0  0  0  0  0  0  0  0  0
  -21.9740   30.4260  -66.9120 C   0  0  0  0  0  0  0  0  0  0  0  0
  -23.0810   31.5970  -66.1140 S   0  0  0  0  0  0  0  0  0  0  0  0
  -20.5440   29.6590  -69.6240 N   0  0  0  0  0  0  0  0  0  0  0  0
  -19.4050   28.9250  -70.1520 C   0  0  2  0  0  0  0  0  0  0  0  0
  -18.5200   28.5660  -68.9610 C   0  0  0  0  0  0  0  0  0  0  0  0
  -18.7090   29.1090  -67.8710 O   0  0  0  0  0  0  0  0  0  0  0  0
  -18.6050   29.7890  -71.1220 C   0  0  0  0  0  0  0  0  0  0  0  0
  -19.3070   30.1010  -72.4360 C   0  0  0  0  0  0  0  0  0  0  0  0
  -18.5010   31.1230  -73.2220 C   0  0  0  0  0  0  0  0  0  0  0  0
  -19.2050   31.5010  -74.5210 C   0  0  0  0  0  0  0  0  0  0  0  0
  -18.4980   32.6220  -75.2060 N   0  0  0  0  0  0  0  0  0  0  0  0
  -17.5760   27.6540  -69.1760 N   0  0  0  0  0  0  0  0  0  0  0  0
  -16.5770   27.3110  -68.1650 C   0  0  2  0  0  0  0  0  0  0  0  0
  -15.2960   28.0440  -68.5010 C   0  0  0  0  0  0  0  0  0  0  0  0
  -14.7530   27.8800  -69.5880 O   0  0  0  0  0  0  0  0  0  0  0  0
  -16.2710   25.8140  -68.1890 C   0  0  0  0  0  0  0  0  0  0  0  0
  -17.1820   24.9830  -67.3260 C   0  0  0  0  0  0  0  0  0  0  0  0
  -18.5400   24.9090  -67.5910 C   0  0  0  0  0  0  0  0  0  0  0  0
  -16.6830   24.2680  -66.2350 C   0  0  0  0  0  0  0  0  0  0  0  0
  -19.3840   24.1420  -66.8010 C   0  0  0  0  0  0  0  0  0  0  0  0
  -17.5150   23.5060  -65.4450 C   0  0  0  0  0  0  0  0  0  0  0  0
  -18.8620   23.4430  -65.7300 C   0  0  0  0  0  0  0  0  0  0  0  0
  -19.6960   22.6790  -64.9450 O   0  0  0  0  0  0  0  0  0  0  0  0
  -14.8090   28.8380  -67.5590 N   0  0  0  0  0  0  0  0  0  0  0  0
  -13.6090   29.6260  -67.7920 C   0  0  2  0  0  0  0  0  0  0  0  0
  -12.3630   28.7990  -67.4980 C   0  0  0  0  0  0  0  0  0  0  0  0
  -12.3300   28.0310  -66.5300 O   0  0  0  0  0  0  0  0  0  0  0  0
  -13.6260   30.8660  -66.8960 C   0  0  0  0  0  0  0  0  0  0  0  0
  -12.3940   31.7490  -67.0390 C   0  0  0  0  0  0  0  0  0  0  0  0
  -12.5820   33.1010  -66.3780 C   0  0  0  0  0  0  0  0  0  0  0  0
  -13.7380   33.4880  -66.0990 O   0  0  0  0  0  0  0  0  0  0  0  0
  -11.5690   33.7680  -66.1350 O   0  0  0  0  0  0  0  0  0  0  0  0
  -11.3440   28.9570  -68.3370 N   0  0  0  0  0  0  0  0  0  0  0  0
  -10.0640   28.3050  -68.1260 C   0  0  2  0  0  0  0  0  0  0  0  0
   -8.9620   29.3640  -68.1290 C   0  0  0  0  0  0  0  0  0  0  0  0
   -9.1970   30.5240  -68.5070 O   0  0  0  0  0  0  0  0  0  0  0  0
   -9.8210   27.2360  -69.1900 C   0  0  0  0  0  0  0  0  0  0  0  0
  -10.2610   27.7760  -70.8940 S   0  0  0  0  0  0  0  0  0  0  0  0
   -7.7670   28.9660  -67.7010 N   0  0  0  0  0  0  0  0  0  0  0  0
   -6.6660   29.9100  -67.5130 C   0  0  2  0  0  0  0  0  0  0  0  0
   -5.5770   29.7540  -68.5760 C   0  0  0  0  0  0  0  0  0  0  0  0
   -5.0200   30.7430  -69.0520 O   0  0  0  0  0  0  0  0  0  0  0  0
   -6.0520   29.7130  -66.1250 C   0  0  0  0  0  0  0  0  0  0  0  0
   -6.6260   30.4920  -64.9370 C   0  0  0  0  0  0  0  0  0  0  0  0
   -6.3410   31.9660  -65.1250 C   0  0  0  0  0  0  0  0  0  0  0  0
   -8.1280   30.2300  -64.7260 C   0  0  0  0  0  0  0  0  0  0  0  0
   -5.2700   28.5120  -68.9530 N   0  0  0  0  0  0  0  0  0  0  0  0
   -4.1730   28.2630  -69.8650 C   0  0  2  0  0  0  0  0  0  0  0  0
   -4.6680   27.9330  -71.2630 C   0  0  0  0  0  0  0  0  0  0  0  0
   -5.2710   26.8760  -71.4830 O   0  0  0  0  0  0  0  0  0  0  0  0
   -3.2810   27.1360  -69.3260 C   0  0  0  0  0  0  0  0  0  0  0  0
   -2.6040   27.4860  -68.0010 C   0  0  0  0  0  0  0  0  0  0  0  0
   -1.7680   26.3210  -67.4830 C   0  0  0  0  0  0  0  0  0  0  0  0
   -1.0780   26.6680  -66.1750 C   0  0  0  0  0  0  0  0  0  0  0  0
   -0.1360   25.5970  -65.7190 N   0  0  0  0  0  0  0  0  0  0  0  0
   -4.4140   28.8500  -72.1890 N   0  0  0  0  0  0  0  0  0  0  0  0
   -4.8440   28.7120  -73.5770 C   0  0  2  0  0  0  0  0  0  0  0  0
   -4.2520   27.4980  -74.2630 C   0  0  0  0  0  0  0  0  0  0  0  0
   -3.0870   27.1650  -74.0550 O   0  0  0  0  0  0  0  0  0  0  0  0
   -4.4790   29.9590  -74.3840 C   0  0  0  0  0  0  0  0  0  0  0  0
   -5.1410   31.2550  -73.9390 C   0  0  0  0  0  0  0  0  0  0  0  0
   -4.7670   32.4100  -74.8770 C   0  0  0  0  0  0  0  0  0  0  0  0
   -6.6570   31.0700  -73.8770 C   0  0  0  0  0  0  0  0  0  0  0  0
   -5.3240   21.8150  -72.6720 N   0  0  0  0  0  0  0  0  0  0  0  0
   -5.7620   22.1360  -71.3280 C   0  0  2  0  0  0  0  0  0  0  0  0
   -6.4990   20.9600  -70.7010 C   0  0  0  0  0  0  0  0  0  0  0  0
   -7.6030   20.6010  -71.1240 O   0  0  0  0  0  0  0  0  0  0  0  0
   -6.6300   23.4030  -71.3550 C   0  0  0  0  0  0  0  0  0  0  0  0
   -6.9620   23.9190  -69.9690 C   0  0  0  0  0  0  0  0  0  0  0  0
   -7.6020   23.2310  -69.1810 O   0  0  0  0  0  0  0  0  0  0  0  0
   -6.5380   25.1480  -69.6690 N   0  0  0  0  0  0  0  0  0  0  0  0
   -5.8850   20.3460  -69.6910 N   0  0  0  0  0  0  0  0  0  0  0  0
   -6.4510   19.1350  -69.1000 C   0  0  2  0  0  0  0  0  0  0  0  0
   -7.7080   19.4400  -68.3100 C   0  0  0  0  0  0  0  0  0  0  0  0
   -8.5530   18.5650  -68.1090 O   0  0  0  0  0  0  0  0  0  0  0  0
   -5.4360   18.4590  -68.1680 C   0  0  0  0  0  0  0  0  0  0  0  0
   -4.3280   17.7650  -68.9180 C   0  0  0  0  0  0  0  0  0  0  0  0
   -4.5440   17.3700  -70.0770 O   0  0  0  0  0  0  0  0  0  0  0  0
   -3.2390   17.5940  -68.3380 O   0  0  0  0  0  0  0  0  0  0  0  0
   -7.8210   20.6690  -67.8180 N   0  0  0  0  0  0  0  0  0  0  0  0
   -9.0430   21.0680  -67.1300 C   0  0  2  0  0  0  0  0  0  0  0  0
  -10.2320   20.9930  -68.0980 C   0  0  0  0  0  0  0  0  0  0  0  0
  -11.2340   20.3420  -67.8010 O   0  0  0  0  0  0  0  0  0  0  0  0
   -8.9170   22.4760  -66.5330 C   0  0  0  0  0  0  0  0  0  0  0  0
  -10.1970   22.9930  -65.9150 C   0  0  0  0  0  0  0  0  0  0  0  0
  -10.7410   22.3840  -64.7910 C   0  0  0  0  0  0  0  0  0  0  0  0
  -10.8550   24.0960  -66.4470 C   0  0  0  0  0  0  0  0  0  0  0  0
  -11.9010   22.8480  -64.2200 C   0  0  0  0  0  0  0  0  0  0  0  0
  -12.0240   24.5740  -65.8830 C   0  0  0  0  0  0  0  0  0  0  0  0
  -12.5460   23.9450  -64.7740 C   0  0  0  0  0  0  0  0  0  0  0  0
  -13.6980   24.3990  -64.2000 O   0  0  0  0  0  0  0  0  0  0  0  0
  -10.1110   21.6540  -69.2510 N   0  0  0  0  0  0  0  0  0  0  0  0
  -11.1740   21.6110  -70.2600 C   0  0  2  0  0  0  0  0  0  0  0  0
  -11.4470   20.1910  -70.7510 C   0  0  0  0  0  0  0  0  0  0  0  0
  -12.6050   19.7860  -70.8970 O   0  0  0  0  0  0  0  0  0  0  0  0
  -10.8280   22.5030  -71.4440 C   0  0  0  0  0  0  0  0  0  0  0  0
  -10.7870   24.2340  -70.9330 S   0  0  0  0  0  0  0  0  0  0  0  0
  -11.0210   17.3230  -69.1460 N   0  0  0  0  0  0  0  0  0  0  0  0
  -13.1730   17.0460  -67.9380 C   0  0  0  0  0  0  0  0  0  0  0  0
  -14.1000   16.2540  -67.7580 O   0  0  0  0  0  0  0  0  0  0  0  0
  -11.7570   16.5290  -68.1680 C   0  0  2  0  0  0  0  0  0  0  0  0
  -10.9920   16.3700  -66.8420 C   0  0  0  0  0  0  0  0  0  0  0  0
  -10.8740   17.6170  -65.9820 C   0  0  0  0  0  0  0  0  0  0  0  0
  -10.0310   17.3000  -64.7380 C   0  0  0  0  0  0  0  0  0  0  0  0
   -9.7940   18.4530  -63.8770 N   0  0  0  0  0  0  0  0  0  0  0  0
  -10.6490   18.8670  -62.9470 C   0  0  0  0  0  0  0  0  0  0  0  0
  -11.7990   18.2250  -62.7780 N   0  0  0  0  0  0  0  0  0  0  0  0
  -10.3650   19.9220  -62.1940 N   0  0  0  0  0  0  0  0  0  0  0  0
  -13.3620   18.3640  -67.9600 N   0  0  0  0  0  0  0  0  0  0  0  0
  -14.7010   18.8940  -67.7800 C   0  0  2  0  0  0  0  0  0  0  0  0
  -15.6000   18.5200  -68.9630 C   0  0  0  0  0  0  0  0  0  0  0  0
  -16.7710   18.1700  -68.7840 O   0  0  0  0  0  0  0  0  0  0  0  0
  -14.6760   20.4130  -67.5370 C   0  0  0  0  0  0  0  0  0  0  0  0
  -14.1090   20.7900  -66.1570 C   0  0  0  0  0  0  0  0  0  0  0  0
  -14.9650   20.2960  -65.0040 C   0  0  0  0  0  0  0  0  0  0  0  0
  -16.1820   20.0790  -65.1990 O   0  0  0  0  0  0  0  0  0  0  0  0
  -14.4280   20.1380  -63.8910 O   0  0  0  0  0  0  0  0  0  0  0  0
   -8.7210   24.8880  -74.2760 N   0  0  0  0  0  0  0  0  0  0  0  0
   -9.0400   26.2180  -73.7850 C   0  0  2  0  0  0  0  0  0  0  0  0
   -8.9060   27.2050  -74.9400 C   0  0  0  0  0  0  0  0  0  0  0  0
   -7.8340   27.3310  -75.5300 O   0  0  0  0  0  0  0  0  0  0  0  0
   -8.0790   26.5990  -72.6440 C   0  0  0  0  0  0  0  0  0  0  0  0
   -8.5120   28.1650  -71.8450 S   0  0  0  0  0  0  0  0  0  0  0  0
  2  1  1  6
  3  2  1  0
  4  3  2  0
  5  2  1  0
  6  5  1  0
  7  6  2  0
  8  6  1  0
 10  9  1  6
 11 10  1  0
 12 11  2  0
 13 10  1  0
 14 13  1  0
 13 15  1  1
 17 16  1  1
 18 17  1  0
 19 18  2  0
 20 17  1  0
 21 20  1  0
 22 18  1  0
 23 22  1  0
 24 23  1  0
 25 24  2  0
 23 26  1  6
 27 26  1  0
 28 27  1  0
 29 28  1  0
 30 29  1  0
 31 24  1  0
 32 31  1  0
 33 32  1  0
 34 33  2  0
 32 35  1  6
 36 35  1  0
 37 36  2  0
 38 36  1  0
 39 37  1  0
 40 38  2  0
 41 40  1  0
 41 39  2  0
 42 41  1  0
 43 33  1  0
 44 43  1  0
 45 44  1  0
 46 45  2  0
 44 47  1  1
 48 47  1  0
 49 48  1  0
 50 49  2  0
 51 49  1  0
 52 45  1  0
 53 52  1  0
 54 53  1  0
 55 54  2  0
 53 56  1  6
 57 56  1  0
 58 54  1  0
 59 58  1  0
 60 59  1  0
 61 60  2  0
 59 62  1  1
 63 62  1  0
 64 63  1  0
 65 63  1  0
 66 60  1  0
 67 66  1  0
 68 67  1  0
 69 68  2  0
 67 70  1  1
 71 70  1  0
 72 71  1  0
 73 72  1  0
 74 73  1  0
 75 68  1  0
 76 75  1  0
 77 76  1  0
 78 77  2  0
 76 79  1  6
 80 79  1  0
 81 80  1  0
 82 80  1  0
 84 83  1  6
 85 84  1  0
 86 85  2  0
 87 84  1  0
 88 87  1  0
 89 88  2  0
 90 88  1  0
 91 85  1  0
 92 91  1  0
 93 92  1  0
 94 93  2  0
 92 95  1  1
 96 95  1  0
 97 96  2  0
 98 96  1  0
 99 93  1  0
100 99  1  0
101100  1  0
102101  2  0
100103  1  6
104103  1  0
105104  2  0
106104  1  0
107105  1  0
108106  2  0
109108  1  0
109107  2  0
110109  1  0
111101  1  0
112111  1  0
113112  1  0
114113  2  0
112115  1  6
116115  1  0
119118  2  0
120118  1  0
120117  1  6
121120  1  0
122121  1  0
123122  1  0
124123  1  0
125124  1  0
126125  1  0
127125  2  0
128118  1  0
129128  1  0
130129  1  0
131130  2  0
129132  1  6
133132  1  0
134133  1  0
135134  2  0
136134  1  0
138137  1  6
139138  1  0
140139  2  0
141138  1  0
142141  1  0
142 57  1  0
M  END
$$$$
