
     RDKit          3D

106103  0  0  0  0  0  0  0  0999 V2000
   95.7250   55.3690   20.2250 N   0  0  0  0  0  0  0  0  0  0  0  0
   94.6060   55.4750   19.3310 C   0  0  2  0  0  0  0  0  0  0  0  0
   94.7720   54.2860   18.3530 C   0  0  0  0  0  0  0  0  0  0  0  0
   95.8300   54.1780   17.7010 O   0  0  0  0  0  0  0  0  0  0  0  0
   94.7370   56.8290   18.5120 C   0  0  0  0  0  0  0  0  0  0  0  0
   93.7280   53.4680   18.1690 N   0  0  0  0  0  0  0  0  0  0  0  0
   93.9160   52.1640   17.5220 C   0  0  2  0  0  0  0  0  0  0  0  0
   92.7770   51.8240   16.6130 C   0  0  0  0  0  0  0  0  0  0  0  0
   92.6690   50.6580   16.1960 O   0  0  0  0  0  0  0  0  0  0  0  0
   94.0380   51.0630   18.5820 C   0  0  0  0  0  0  0  0  0  0  0  0
   95.2930   51.1340   19.3070 O   0  0  0  0  0  0  0  0  0  0  0  0
   91.8900   52.8130   16.4060 N   0  0  0  0  0  0  0  0  0  0  0  0
   90.8880   52.8150   15.3890 C   0  0  2  0  0  0  0  0  0  0  0  0
   90.8620   54.2370   14.7110 C   0  0  0  0  0  0  0  0  0  0  0  0
   91.5240   55.1870   15.2090 O   0  0  0  0  0  0  0  0  0  0  0  0
   89.5070   52.4410   15.9260 C   0  0  0  0  0  0  0  0  0  0  0  0
   88.9130   53.5020   16.6510 O   0  0  0  0  0  0  0  0  0  0  0  0
   90.1850   54.3360   13.5240 N   0  0  0  0  0  0  0  0  0  0  0  0
   89.9190   55.5950   12.8210 C   0  0  2  0  0  0  0  0  0  0  0  0
   89.1650   56.5440   13.7520 C   0  0  0  0  0  0  0  0  0  0  0  0
   89.5040   57.7390   13.8300 O   0  0  0  0  0  0  0  0  0  0  0  0
   89.0130   55.1650   11.6280 C   0  0  0  0  0  0  0  0  0  0  0  0
   88.8300   53.7140   11.7470 C   0  0  0  0  0  0  0  0  0  0  0  0
   89.7510   53.1610   12.7370 C   0  0  0  0  0  0  0  0  0  0  0  0
   88.1840   55.9990   14.4730 N   0  0  0  0  0  0  0  0  0  0  0  0
   87.3990   56.7610   15.4400 C   0  0  2  0  0  0  0  0  0  0  0  0
   88.1620   57.3080   16.6520 C   0  0  0  0  0  0  0  0  0  0  0  0
   87.8120   58.3960   17.1740 O   0  0  0  0  0  0  0  0  0  0  0  0
   86.1330   56.0030   15.8790 C   0  0  0  0  0  0  0  0  0  0  0  0
   85.2030   55.3260   14.8330 C   0  0  0  0  0  0  0  0  0  0  0  0
   84.1120   54.6680   15.6210 C   0  0  0  0  0  0  0  0  0  0  0  0
   84.6530   56.3770   13.8480 C   0  0  0  0  0  0  0  0  0  0  0  0
   91.4730   57.9890   16.4950 N   0  0  0  0  0  0  0  0  0  0  0  0
   92.2850   59.1030   15.9580 C   0  0  2  0  0  0  0  0  0  0  0  0
   91.4760   60.4270   15.8220 C   0  0  0  0  0  0  0  0  0  0  0  0
   91.9890   61.4600   16.1260 O   0  0  0  0  0  0  0  0  0  0  0  0
   92.8540   58.7740   14.5810 C   0  0  0  0  0  0  0  0  0  0  0  0
   93.9760   57.7850   14.5990 C   0  0  0  0  0  0  0  0  0  0  0  0
   93.8800   56.5340   14.0120 N   0  0  0  0  0  0  0  0  0  0  0  0
   95.2300   57.8700   15.0910 C   0  0  0  0  0  0  0  0  0  0  0  0
   95.0320   55.9080   14.1200 C   0  0  0  0  0  0  0  0  0  0  0  0
   95.8590   56.6730   14.8100 N   0  0  0  0  0  0  0  0  0  0  0  0
   90.2700   60.3630   15.2730 N   0  0  0  0  0  0  0  0  0  0  0  0
   89.3600   61.4980   15.2070 C   0  0  2  0  0  0  0  0  0  0  0  0
   89.0950   62.1170   16.6230 C   0  0  0  0  0  0  0  0  0  0  0  0
   89.2410   63.3870   16.8270 O   0  0  0  0  0  0  0  0  0  0  0  0
   88.0480   61.0080   14.6140 C   0  0  0  0  0  0  0  0  0  0  0  0
   88.0650   60.9150   13.1020 C   0  0  0  0  0  0  0  0  0  0  0  0
   89.0530   61.3110   12.4230 O   0  0  0  0  0  0  0  0  0  0  0  0
   86.9900   60.5380   12.6050 O   0  0  0  0  0  0  0  0  0  0  0  0
   88.7410   61.2320   17.5790 N   0  0  0  0  0  0  0  0  0  0  0  0
   88.4140   61.5940   18.9730 C   0  0  2  0  0  0  0  0  0  0  0  0
   89.5860   62.2260   19.6610 C   0  0  0  0  0  0  0  0  0  0  0  0
   89.4270   63.3140   20.2470 O   0  0  0  0  0  0  0  0  0  0  0  0
   87.9130   60.4030   19.8070 C   0  0  0  0  0  0  0  0  0  0  0  0
   87.8000   60.6030   21.3870 C   0  0  0  0  0  0  0  0  0  0  0  0
   89.0100   60.0410   22.0960 C   0  0  0  0  0  0  0  0  0  0  0  0
   89.6790   59.1590   21.5760 O   0  0  0  0  0  0  0  0  0  0  0  0
   89.3170   60.5510   23.2580 N   0  0  0  0  0  0  0  0  0  0  0  0
   92.0120   63.6370   18.2130 N   0  0  0  0  0  0  0  0  0  0  0  0
   92.4130   64.8410   17.4450 C   0  0  2  0  0  0  0  0  0  0  0  0
   91.5770   66.0320   17.9390 C   0  0  0  0  0  0  0  0  0  0  0  0
   92.1020   67.0780   18.2800 O   0  0  0  0  0  0  0  0  0  0  0  0
   92.1570   64.6830   15.9480 C   0  0  0  0  0  0  0  0  0  0  0  0
   92.5820   65.9520   15.1830 C   0  0  0  0  0  0  0  0  0  0  0  0
   93.8380   66.2370   14.7140 C   0  0  0  0  0  0  0  0  0  0  0  0
   91.7560   67.1050   14.8410 C   0  0  0  0  0  0  0  0  0  0  0  0
   93.8410   67.4670   14.0700 N   0  0  0  0  0  0  0  0  0  0  0  0
   92.5840   68.0070   14.1050 C   0  0  0  0  0  0  0  0  0  0  0  0
   90.3850   67.4200   15.0140 C   0  0  0  0  0  0  0  0  0  0  0  0
   92.1220   69.2410   13.6190 C   0  0  0  0  0  0  0  0  0  0  0  0
   89.8980   68.6620   14.4930 C   0  0  0  0  0  0  0  0  0  0  0  0
   90.7860   69.5650   13.8400 C   0  0  0  0  0  0  0  0  0  0  0  0
   82.6630   64.4770   12.7870 N   0  0  0  0  0  0  0  0  0  0  0  0
   83.3830   63.4110   13.4880 C   0  0  2  0  0  0  0  0  0  0  0  0
   82.3560   62.5140   14.1990 C   0  0  0  0  0  0  0  0  0  0  0  0
   82.4880   61.2670   14.2510 O   0  0  0  0  0  0  0  0  0  0  0  0
   84.4170   64.0420   14.4550 C   0  0  2  0  0  0  0  0  0  0  0  0
   85.6230   64.4920   13.6410 C   0  0  0  0  0  0  0  0  0  0  0  0
   84.6870   63.1330   15.7040 C   0  0  0  0  0  0  0  0  0  0  0  0
   86.8670   65.0040   14.4160 C   0  0  0  0  0  0  0  0  0  0  0  0
   80.4610   60.4430   11.3340 N   0  0  0  0  0  0  0  0  0  0  0  0
   81.2640   59.3040   10.9000 C   0  0  2  0  0  0  0  0  0  0  0  0
   81.3550   58.1850   11.9710 C   0  0  0  0  0  0  0  0  0  0  0  0
   81.5080   57.0130   11.6390 O   0  0  0  0  0  0  0  0  0  0  0  0
   82.6010   59.8410   10.4450 C   0  0  0  0  0  0  0  0  0  0  0  0
   83.7930   58.9460   10.5360 C   0  0  0  0  0  0  0  0  0  0  0  0
   85.1050   59.7090   10.1390 C   0  0  0  0  0  0  0  0  0  0  0  0
   84.8440   60.9070    9.3260 N   0  0  0  0  0  0  0  0  0  0  0  0
   85.3350   62.1440    9.5760 C   0  0  0  0  0  0  0  0  0  0  0  0
   86.1530   62.3790   10.6020 N   0  0  0  0  0  0  0  0  0  0  0  0
   85.0360   63.1660    8.7540 N   0  0  0  0  0  0  0  0  0  0  0  0
   87.2180   49.6590   13.4880 N   0  0  0  0  0  0  0  0  0  0  0  0
   88.0580   48.8640   12.6330 C   0  0  2  0  0  0  0  0  0  0  0  0
   89.3960   49.0000   13.3680 C   0  0  0  0  0  0  0  0  0  0  0  0
   89.6450   50.0700   13.9730 O   0  0  0  0  0  0  0  0  0  0  0  0
   87.9790   49.4690   11.2200 C   0  0  0  0  0  0  0  0  0  0  0  0
   88.9990   50.4450   11.0220 O   0  0  0  0  0  0  0  0  0  0  0  0
   93.6220   48.9160   13.9600 N   0  0  0  0  0  0  0  0  0  0  0  0
   94.7390   49.4100   13.0970 C   0  0  2  0  0  0  0  0  0  0  0  0
   95.9430   48.4720   13.0080 C   0  0  0  0  0  0  0  0  0  0  0  0
   96.7510   48.5470   12.0480 O   0  0  0  0  0  0  0  0  0  0  0  0
   95.3240   50.7390   13.6580 C   0  0  0  0  0  0  0  0  0  0  0  0
   94.4170   51.9920   13.4150 C   0  0  0  0  0  0  0  0  0  0  0  0
   93.3540   51.9430   12.7640 O   0  0  0  0  0  0  0  0  0  0  0  0
   94.7810   53.0470   13.9920 O   0  0  0  0  0  0  0  0  0  0  0  0
  2  1  1  0
  3  2  1  0
  4  3  2  0
  2  5  1  6
  6  3  1  0
  7  6  1  0
  8  7  1  0
  9  8  2  0
  7 10  1  1
 11 10  1  0
 12  8  1  0
 13 12  1  0
 14 13  1  0
 15 14  2  0
 13 16  1  1
 17 16  1  0
 18 14  1  0
 19 18  1  0
 19 20  1  1
 21 20  2  0
 22 19  1  0
 23 22  1  0
 24 23  1  0
 24 18  1  0
 25 20  1  0
 26 25  1  0
 27 26  1  0
 28 27  2  0
 26 29  1  1
 30 29  1  0
 31 30  1  0
 32 30  1  0
 34 33  1  6
 35 34  1  0
 36 35  2  0
 37 34  1  0
 38 37  1  0
 39 38  1  0
 40 38  2  0
 41 39  2  0
 42 41  1  0
 42 40  1  0
 43 35  1  0
 44 43  1  0
 45 44  1  0
 46 45  2  0
 44 47  1  1
 48 47  1  0
 49 48  2  0
 50 48  1  0
 51 45  1  0
 52 51  1  0
 53 52  1  0
 54 53  2  0
 52 55  1  1
 56 55  1  0
 57 56  1  0
 58 57  2  0
 59 57  1  0
 61 60  1  1
 62 61  1  0
 63 62  2  0
 64 61  1  0
 65 64  1  0
 66 65  2  0
 67 65  1  0
 68 66  1  0
 69 67  2  0
 69 68  1  0
 70 67  1  0
 71 69  1  0
 72 70  2  0
 73 72  1  0
 73 71  2  0
 75 74  1  1
 76 75  1  0
 77 76  2  0
 78 75  1  0
 79 78  1  0
 78 80  1  1
 81 79  1  0
 83 82  1  1
 84 83  1  0
 85 84  2  0
 86 83  1  0
 87 86  1  0
 88 87  1  0
 89 88  1  0
 90 89  1  0
 91 90  1  0
 92 90  2  0
 94 93  1  1
 95 94  1  0
 96 95  2  0
 97 94  1  0
 98 97  1  0
100 99  1  1
101100  1  0
102101  2  0
103100  1  0
104103  1  0
105104  2  0
106104  1  0
M  END
$$$$
