
     RDKit          3D

110104  0  0  0  0  0  0  0  0999 V2000
    8.3720  -23.0770  -56.8710 N   0  0  0  0  0  0  0  0  0  0  0  0
    8.3290  -22.1110  -55.7630 C   0  0  2  0  0  0  0  0  0  0  0  0
    8.3990  -20.6850  -56.2770 C   0  0  0  0  0  0  0  0  0  0  0  0
    7.5800  -19.8410  -55.8950 O   0  0  0  0  0  0  0  0  0  0  0  0
    9.4550  -22.3560  -54.7290 C   0  0  0  0  0  0  0  0  0  0  0  0
    9.9600  -21.0430  -54.1170 C   0  0  0  0  0  0  0  0  0  0  0  0
    8.9780  -23.2980  -53.6470 C   0  0  0  0  0  0  0  0  0  0  0  0
    7.7930  -19.2250  -59.3870 N   0  0  0  0  0  0  0  0  0  0  0  0
    6.6120  -18.7770  -60.1150 C   0  0  2  0  0  0  0  0  0  0  0  0
    5.3430  -18.7130  -59.2640 C   0  0  0  0  0  0  0  0  0  0  0  0
    4.4700  -17.9070  -59.5560 O   0  0  0  0  0  0  0  0  0  0  0  0
    6.3700  -19.6000  -61.4070 C   0  0  2  0  0  0  0  0  0  0  0  0
    6.1130  -21.0790  -61.0910 C   0  0  0  0  0  0  0  0  0  0  0  0
    7.5510  -19.4310  -62.3720 C   0  0  0  0  0  0  0  0  0  0  0  0
    5.3120  -21.7850  -62.1420 C   0  0  0  0  0  0  0  0  0  0  0  0
    5.2310  -19.5450  -58.2250 N   0  0  0  0  0  0  0  0  0  0  0  0
    4.1080  -19.4140  -57.2830 C   0  0  2  0  0  0  0  0  0  0  0  0
    4.3020  -18.2070  -56.3830 C   0  0  0  0  0  0  0  0  0  0  0  0
    3.3570  -17.4500  -56.1380 O   0  0  0  0  0  0  0  0  0  0  0  0
    3.9170  -20.6320  -56.3690 C   0  0  2  0  0  0  0  0  0  0  0  0
    5.1940  -21.1740  -56.0270 O   0  0  0  0  0  0  0  0  0  0  0  0
    3.0550  -21.6850  -57.0310 C   0  0  0  0  0  0  0  0  0  0  0  0
    5.5270  -18.0320  -55.8950 N   0  0  0  0  0  0  0  0  0  0  0  0
    5.8250  -16.9570  -54.9660 C   0  0  2  0  0  0  0  0  0  0  0  0
    5.9510  -15.6110  -55.6760 C   0  0  0  0  0  0  0  0  0  0  0  0
    5.3390  -14.6290  -55.2560 O   0  0  0  0  0  0  0  0  0  0  0  0
    7.0940  -17.2780  -54.1830 C   0  0  0  0  0  0  0  0  0  0  0  0
    7.1520  -16.6430  -52.8110 C   0  0  0  0  0  0  0  0  0  0  0  0
    7.8580  -17.5250  -51.7980 C   0  0  0  0  0  0  0  0  0  0  0  0
    8.8250  -17.1080  -51.1680 O   0  0  0  0  0  0  0  0  0  0  0  0
    7.3750  -18.7540  -51.6400 N   0  0  0  0  0  0  0  0  0  0  0  0
    6.7440  -15.5770  -56.7470 N   0  0  0  0  0  0  0  0  0  0  0  0
    7.1650  -14.3270  -57.3890 C   0  0  2  0  0  0  0  0  0  0  0  0
    6.1810  -13.6630  -58.3380 C   0  0  0  0  0  0  0  0  0  0  0  0
    6.2230  -12.4440  -58.5090 O   0  0  0  0  0  0  0  0  0  0  0  0
    8.4970  -14.5210  -58.1130 C   0  0  0  0  0  0  0  0  0  0  0  0
    9.6820  -14.4930  -57.1690 C   0  0  0  0  0  0  0  0  0  0  0  0
    9.5380  -14.2830  -55.9610 O   0  0  0  0  0  0  0  0  0  0  0  0
   10.8700  -14.7060  -57.7180 N   0  0  0  0  0  0  0  0  0  0  0  0
    5.3040  -14.4500  -58.9510 N   0  0  0  0  0  0  0  0  0  0  0  0
    4.4150  -13.9080  -59.9730 C   0  0  2  0  0  0  0  0  0  0  0  0
    3.3580  -12.9570  -59.4190 C   0  0  0  0  0  0  0  0  0  0  0  0
    2.5350  -13.3430  -58.5780 O   0  0  0  0  0  0  0  0  0  0  0  0
    3.7940  -15.0150  -60.8190 C   0  0  0  0  0  0  0  0  0  0  0  0
    4.7970  -15.6690  -61.7770 C   0  0  0  0  0  0  0  0  0  0  0  0
    5.4540  -14.6860  -62.7360 C   0  0  0  0  0  0  0  0  0  0  0  0
    4.7840  -13.8660  -63.3680 O   0  0  0  0  0  0  0  0  0  0  0  0
    6.7750  -14.7680  -62.8470 N   0  0  0  0  0  0  0  0  0  0  0  0
    3.4130  -11.7170  -59.9180 N   0  0  0  0  0  0  0  0  0  0  0  0
    2.6210  -10.5710  -59.4360 C   0  0  2  0  0  0  0  0  0  0  0  0
    1.1200  -10.7110  -59.7070 C   0  0  0  0  0  0  0  0  0  0  0  0
    0.3420  -10.9770  -58.7840 O   0  0  0  0  0  0  0  0  0  0  0  0
    3.1470   -9.2640  -60.0550 C   0  0  0  0  0  0  0  0  0  0  0  0
    4.6090   -8.9520  -59.7470 C   0  0  0  0  0  0  0  0  0  0  0  0
    5.1100   -7.8100  -60.6090 C   0  0  0  0  0  0  0  0  0  0  0  0
    6.3720   -7.2050  -60.0250 C   0  0  0  0  0  0  0  0  0  0  0  0
    6.7410   -5.9350  -60.7080 N   0  0  0  0  0  0  0  0  0  0  0  0
    0.8400  -24.6060  -57.5000 N   0  0  0  0  0  0  0  0  0  0  0  0
    0.9590  -24.7500  -56.0530 C   0  0  2  0  0  0  0  0  0  0  0  0
    0.7400  -26.1940  -55.5830 C   0  0  0  0  0  0  0  0  0  0  0  0
    1.5760  -26.7560  -54.8740 O   0  0  0  0  0  0  0  0  0  0  0  0
   -0.0300  -23.8070  -55.3760 C   0  0  0  0  0  0  0  0  0  0  0  0
    0.2200  -23.5780  -53.9100 C   0  0  0  0  0  0  0  0  0  0  0  0
   -0.8150  -22.6250  -53.3460 C   0  0  0  0  0  0  0  0  0  0  0  0
   -0.3750  -22.0760  -52.0150 C   0  0  0  0  0  0  0  0  0  0  0  0
   -1.4580  -21.3020  -51.3850 N   0  0  0  0  0  0  0  0  0  0  0  0
   -0.3830  -26.7850  -55.9820 N   0  0  0  0  0  0  0  0  0  0  0  0
   -0.6850  -28.1740  -55.6540 C   0  0  2  0  0  0  0  0  0  0  0  0
    0.5040  -29.0440  -55.9600 C   0  0  0  0  0  0  0  0  0  0  0  0
    1.0150  -29.7330  -55.0810 O   0  0  0  0  0  0  0  0  0  0  0  0
   -1.8850  -28.6660  -56.4500 C   0  0  0  0  0  0  0  0  0  0  0  0
   -3.1580  -28.6260  -55.6520 C   0  0  0  0  0  0  0  0  0  0  0  0
   -3.7040  -27.5190  -55.4380 O   0  0  0  0  0  0  0  0  0  0  0  0
   -3.6100  -29.7140  -55.2390 O   0  0  0  0  0  0  0  0  0  0  0  0
    3.6020  -28.3590  -56.4520 N   0  0  0  0  0  0  0  0  0  0  0  0
    4.6500  -28.0320  -55.5000 C   0  0  2  0  0  0  0  0  0  0  0  0
    4.4540  -28.7670  -54.1790 C   0  0  0  0  0  0  0  0  0  0  0  0
    5.3320  -29.5130  -53.7600 O   0  0  0  0  0  0  0  0  0  0  0  0
    4.7060  -26.5200  -55.2780 C   0  0  0  0  0  0  0  0  0  0  0  0
    5.7030  -25.9830  -54.2590 C   0  0  0  0  0  0  0  0  0  0  0  0
    7.1430  -26.4020  -54.5900 C   0  0  0  0  0  0  0  0  0  0  0  0
    5.5660  -24.4790  -54.2130 C   0  0  0  0  0  0  0  0  0  0  0  0
    3.3100  -28.5570  -53.5310 N   0  0  0  0  0  0  0  0  0  0  0  0
    3.0220  -29.2190  -52.2580 C   0  0  2  0  0  0  0  0  0  0  0  0
    3.2690  -30.7290  -52.3550 C   0  0  0  0  0  0  0  0  0  0  0  0
    4.0230  -31.2900  -51.5570 O   0  0  0  0  0  0  0  0  0  0  0  0
    1.5810  -28.9510  -51.8050 C   0  0  0  0  0  0  0  0  0  0  0  0
    1.1630  -29.0000  -50.3230 C   0  0  0  0  0  0  0  0  0  0  0  0
   -0.0460  -29.9080  -50.2010 C   0  0  0  0  0  0  0  0  0  0  0  0
    2.2500  -29.4610  -49.3630 C   0  0  0  0  0  0  0  0  0  0  0  0
    6.8210  -31.2650  -52.5650 N   0  0  0  0  0  0  0  0  0  0  0  0
    7.2950  -30.9090  -51.2250 C   0  0  2  0  0  0  0  0  0  0  0  0
    7.1060  -32.0730  -50.2570 C   0  0  0  0  0  0  0  0  0  0  0  0
    8.0260  -32.4220  -49.5130 O   0  0  0  0  0  0  0  0  0  0  0  0
    6.5180  -29.7100  -50.6820 C   0  0  0  0  0  0  0  0  0  0  0  0
    7.2150  -28.3690  -50.7290 C   0  0  0  0  0  0  0  0  0  0  0  0
    6.4790  -27.3970  -49.8120 C   0  0  0  0  0  0  0  0  0  0  0  0
    6.9520  -25.9660  -49.9990 C   0  0  0  0  0  0  0  0  0  0  0  0
    6.6250  -25.1130  -48.8120 N   0  0  0  0  0  0  0  0  0  0  0  0
    8.8590  -34.8900  -46.6890 N   0  0  0  0  0  0  0  0  0  0  0  0
    8.4780  -34.7460  -45.2860 C   0  0  2  0  0  0  0  0  0  0  0  0
    8.5260  -36.1230  -44.6260 C   0  0  0  0  0  0  0  0  0  0  0  0
    7.6000  -36.9330  -44.7610 O   0  0  0  0  0  0  0  0  0  0  0  0
    7.0850  -34.1210  -45.1530 C   0  0  0  0  0  0  0  0  0  0  0  0
    7.0020  -32.7010  -45.6500 C   0  0  0  0  0  0  0  0  0  0  0  0
    5.6200  -32.1460  -45.4480 C   0  0  0  0  0  0  0  0  0  0  0  0
    5.5150  -30.7550  -45.8880 N   0  0  0  0  0  0  0  0  0  0  0  0
    4.3690  -30.0830  -46.0050 C   0  0  0  0  0  0  0  0  0  0  0  0
    3.2110  -30.6690  -45.7140 N   0  0  0  0  0  0  0  0  0  0  0  0
    4.3780  -28.8190  -46.4140 N   0  0  0  0  0  0  0  0  0  0  0  0
  2  1  1  6
  3  2  1  0
  4  3  2  0
  5  2  1  0
  6  5  1  0
  7  5  1  0
  9  8  1  1
 10  9  1  0
 11 10  2  0
 12  9  1  0
 13 12  1  0
 12 14  1  6
 15 13  1  0
 16 10  1  0
 17 16  1  6
 18 17  1  0
 19 18  2  0
 20 17  1  0
 21 20  1  0
 20 22  1  6
 23 18  1  0
 24 23  1  0
 25 24  1  0
 26 25  2  0
 24 27  1  6
 28 27  1  0
 29 28  1  0
 30 29  2  0
 31 29  1  0
 32 25  1  0
 33 32  1  0
 34 33  1  0
 35 34  2  0
 33 36  1  6
 37 36  1  0
 38 37  2  0
 39 37  1  0
 40 34  1  0
 41 40  1  0
 42 41  1  0
 43 42  2  0
 41 44  1  1
 45 44  1  0
 46 45  1  0
 47 46  2  0
 48 46  1  0
 49 42  1  0
 50 49  1  0
 51 50  1  0
 52 51  2  0
 50 53  1  6
 54 53  1  0
 55 54  1  0
 56 55  1  0
 57 56  1  0
 59 58  1  6
 60 59  1  0
 61 60  2  0
 62 59  1  0
 63 62  1  0
 64 63  1  0
 65 64  1  0
 66 65  1  0
 67 60  1  0
 68 67  1  0
 69 68  1  0
 70 69  2  0
 68 71  1  6
 72 71  1  0
 73 72  2  0
 74 72  1  0
 76 75  1  6
 77 76  1  0
 78 77  2  0
 79 76  1  0
 80 79  1  0
 81 80  1  0
 82 80  1  0
 83 77  1  0
 84 83  1  0
 85 84  1  0
 86 85  2  0
 84 87  1  6
 88 87  1  0
 89 88  1  0
 90 88  1  0
 92 91  1  6
 93 92  1  0
 94 93  2  0
 95 92  1  0
 96 95  1  0
 97 96  1  0
 98 97  1  0
 99 98  1  0
101100  1  6
102101  1  0
103102  2  0
104101  1  0
105104  1  0
106105  1  0
107106  1  0
108107  1  0
109108  1  0
110108  2  0
M  END
$$$$
