
     RDKit          3D

124122  0  0  0  0  0  0  0  0999 V2000
  -30.9040   23.8620  -21.9810 N   0  0  0  0  0  0  0  0  0  0  0  0
  -30.8650   23.7770  -20.5220 C   0  0  2  0  0  0  0  0  0  0  0  0
  -31.3550   25.0850  -19.9030 C   0  0  0  0  0  0  0  0  0  0  0  0
  -31.3330   26.1290  -20.5540 O   0  0  0  0  0  0  0  0  0  0  0  0
  -29.4420   23.4860  -20.0380 C   0  0  0  0  0  0  0  0  0  0  0  0
  -29.0330   22.0170  -20.1310 C   0  0  0  0  0  0  0  0  0  0  0  0
  -28.6340   21.6050  -21.5360 C   0  0  0  0  0  0  0  0  0  0  0  0
  -28.6070   22.4830  -22.4290 O   0  0  0  0  0  0  0  0  0  0  0  0
  -28.3460   20.4060  -21.7530 O   0  0  0  0  0  0  0  0  0  0  0  0
  -31.8100   25.0290  -18.6530 N   0  0  0  0  0  0  0  0  0  0  0  0
  -32.0970   26.2500  -17.8970 C   0  0  2  0  0  0  0  0  0  0  0  0
  -30.7720   26.8630  -17.4510 C   0  0  0  0  0  0  0  0  0  0  0  0
  -30.1330   26.3810  -16.5090 O   0  0  0  0  0  0  0  0  0  0  0  0
  -32.9670   25.9320  -16.6710 C   0  0  0  0  0  0  0  0  0  0  0  0
  -33.2140   27.1530  -15.7890 C   0  0  0  0  0  0  0  0  0  0  0  0
  -32.8590   28.2850  -16.1910 O   0  0  0  0  0  0  0  0  0  0  0  0
  -33.7660   26.9810  -14.6840 O   0  0  0  0  0  0  0  0  0  0  0  0
  -29.7950   29.4180  -15.7750 N   0  0  0  0  0  0  0  0  0  0  0  0
  -29.5920   29.9860  -14.4410 C   0  0  2  0  0  0  0  0  0  0  0  0
  -29.1320   28.9330  -13.4310 C   0  0  0  0  0  0  0  0  0  0  0  0
  -28.6420   29.2760  -12.3540 O   0  0  0  0  0  0  0  0  0  0  0  0
  -30.8760   30.6420  -13.8890 C   0  0  2  0  0  0  0  0  0  0  0  0
  -31.8590   29.6320  -13.6270 O   0  0  0  0  0  0  0  0  0  0  0  0
  -31.4380   31.6330  -14.8930 C   0  0  0  0  0  0  0  0  0  0  0  0
  -29.2960   27.6580  -13.7740 N   0  0  0  0  0  0  0  0  0  0  0  0
  -28.8360   26.5730  -12.9130 C   0  0  2  0  0  0  0  0  0  0  0  0
  -27.8480   25.6500  -13.6090 C   0  0  0  0  0  0  0  0  0  0  0  0
  -27.5000   24.5990  -13.0780 O   0  0  0  0  0  0  0  0  0  0  0  0
  -30.0230   25.7460  -12.4230 C   0  0  0  0  0  0  0  0  0  0  0  0
  -30.9640   26.5060  -11.5090 C   0  0  0  0  0  0  0  0  0  0  0  0
  -31.9610   25.5690  -10.8440 C   0  0  0  0  0  0  0  0  0  0  0  0
  -33.1000   25.2820  -11.7070 N   0  0  0  0  0  0  0  0  0  0  0  0
  -34.0040   24.3390  -11.4560 C   0  0  0  0  0  0  0  0  0  0  0  0
  -35.0130   24.1460  -12.2930 N   0  0  0  0  0  0  0  0  0  0  0  0
  -33.8950   23.5860  -10.3710 N   0  0  0  0  0  0  0  0  0  0  0  0
  -27.4060   26.0240  -14.8040 N   0  0  0  0  0  0  0  0  0  0  0  0
  -26.5570   25.1290  -15.5820 C   0  0  2  0  0  0  0  0  0  0  0  0
  -25.1000   25.5890  -15.6030 C   0  0  0  0  0  0  0  0  0  0  0  0
  -24.7930   26.6950  -16.0480 O   0  0  0  0  0  0  0  0  0  0  0  0
  -27.0840   25.0110  -17.0130 C   0  0  0  0  0  0  0  0  0  0  0  0
  -26.3550   23.9920  -17.8460 C   0  0  0  0  0  0  0  0  0  0  0  0
  -25.7740   24.3480  -19.0560 C   0  0  0  0  0  0  0  0  0  0  0  0
  -26.2590   22.6720  -17.4240 C   0  0  0  0  0  0  0  0  0  0  0  0
  -25.1120   23.4030  -19.8350 C   0  0  0  0  0  0  0  0  0  0  0  0
  -25.6000   21.7230  -18.1930 C   0  0  0  0  0  0  0  0  0  0  0  0
  -25.0260   22.0870  -19.4020 C   0  0  0  0  0  0  0  0  0  0  0  0
  -24.2110   24.7320  -15.1110 N   0  0  0  0  0  0  0  0  0  0  0  0
  -22.7800   24.9960  -15.1440 C   0  0  2  0  0  0  0  0  0  0  0  0
  -22.1150   23.8880  -15.9390 C   0  0  0  0  0  0  0  0  0  0  0  0
  -21.8550   22.8050  -15.4180 O   0  0  0  0  0  0  0  0  0  0  0  0
  -22.2020   25.0260  -13.7260 C   0  0  0  0  0  0  0  0  0  0  0  0
  -22.7820   26.0980  -12.8550 C   0  0  0  0  0  0  0  0  0  0  0  0
  -22.0080   26.8880  -12.0320 N   0  0  0  0  0  0  0  0  0  0  0  0
  -24.0600   26.5120  -12.6750 C   0  0  0  0  0  0  0  0  0  0  0  0
  -22.7820   27.7400  -11.3830 C   0  0  0  0  0  0  0  0  0  0  0  0
  -24.0320   27.5320  -11.7550 N   0  0  0  0  0  0  0  0  0  0  0  0
  -19.2220   21.6200  -14.7110 N   0  0  0  0  0  0  0  0  0  0  0  0
  -19.4910   20.6950  -13.6080 C   0  0  2  0  0  0  0  0  0  0  0  0
  -20.4570   19.5840  -14.0110 C   0  0  0  0  0  0  0  0  0  0  0  0
  -20.4560   18.5080  -13.4270 O   0  0  0  0  0  0  0  0  0  0  0  0
  -20.0470   21.4570  -12.4170 C   0  0  0  0  0  0  0  0  0  0  0  0
  -21.2740   19.8540  -15.0200 N   0  0  0  0  0  0  0  0  0  0  0  0
  -22.3370   18.9460  -15.4230 C   0  0  2  0  0  0  0  0  0  0  0  0
  -21.8270   17.6550  -16.0680 C   0  0  0  0  0  0  0  0  0  0  0  0
  -20.9090   17.6750  -16.8810 O   0  0  0  0  0  0  0  0  0  0  0  0
  -23.2750   19.6700  -16.3900 C   0  0  0  0  0  0  0  0  0  0  0  0
  -24.2610   18.7910  -16.9040 O   0  0  0  0  0  0  0  0  0  0  0  0
  -22.4280   16.5300  -15.6970 N   0  0  0  0  0  0  0  0  0  0  0  0
  -22.1700   15.2670  -16.3830 C   0  0  2  0  0  0  0  0  0  0  0  0
  -23.3370   14.9470  -17.3100 C   0  0  0  0  0  0  0  0  0  0  0  0
  -24.3080   14.3090  -16.9030 O   0  0  0  0  0  0  0  0  0  0  0  0
  -22.0070   14.1300  -15.3700 C   0  0  0  0  0  0  0  0  0  0  0  0
  -20.8790   14.3240  -14.3720 C   0  0  0  0  0  0  0  0  0  0  0  0
  -21.1990   13.5760  -13.0900 C   0  0  0  0  0  0  0  0  0  0  0  0
  -19.9490   13.0550  -12.3910 C   0  0  0  0  0  0  0  0  0  0  0  0
  -20.2920   11.9580  -11.4230 N   0  0  0  0  0  0  0  0  0  0  0  0
  -23.2420   15.3850  -18.5590 N   0  0  0  0  0  0  0  0  0  0  0  0
  -24.3630   15.2720  -19.4800 C   0  0  2  0  0  0  0  0  0  0  0  0
  -24.6820   13.8310  -19.8730 C   0  0  0  0  0  0  0  0  0  0  0  0
  -25.8020   13.5390  -20.2950 O   0  0  0  0  0  0  0  0  0  0  0  0
  -24.0920   16.1120  -20.7360 C   0  0  0  0  0  0  0  0  0  0  0  0
  -24.0070   17.9190  -20.4240 S   0  0  0  0  0  0  0  0  0  0  0  0
  -24.4560   11.0510  -17.9200 N   0  0  0  0  0  0  0  0  0  0  0  0
  -24.6110   10.1440  -16.7910 C   0  0  2  0  0  0  0  0  0  0  0  0
  -25.7630    9.1480  -16.9220 C   0  0  0  0  0  0  0  0  0  0  0  0
  -25.5850    7.9520  -16.7000 O   0  0  0  0  0  0  0  0  0  0  0  0
  -24.7820   10.9450  -15.5070 C   0  0  0  0  0  0  0  0  0  0  0  0
  -25.3210   10.1150  -14.4990 O   0  0  0  0  0  0  0  0  0  0  0  0
  -31.8640   16.6230  -22.7120 N   0  0  0  0  0  0  0  0  0  0  0  0
  -30.6810   17.4660  -22.5620 C   0  0  2  0  0  0  0  0  0  0  0  0
  -29.8900   17.0940  -21.3060 C   0  0  0  0  0  0  0  0  0  0  0  0
  -30.1730   16.0830  -20.6660 O   0  0  0  0  0  0  0  0  0  0  0  0
  -31.0780   18.9480  -22.5370 C   0  0  0  0  0  0  0  0  0  0  0  0
  -31.9700   19.3010  -21.3640 C   0  0  0  0  0  0  0  0  0  0  0  0
  -32.0190   18.5890  -20.3590 O   0  0  0  0  0  0  0  0  0  0  0  0
  -32.6810   20.4140  -21.4870 N   0  0  0  0  0  0  0  0  0  0  0  0
  -28.8870   17.8970  -20.9690 N   0  0  0  0  0  0  0  0  0  0  0  0
  -28.0180   17.5960  -19.8330 C   0  0  2  0  0  0  0  0  0  0  0  0
  -28.8070   17.5930  -18.5290 C   0  0  0  0  0  0  0  0  0  0  0  0
  -28.4060   16.9580  -17.5530 O   0  0  0  0  0  0  0  0  0  0  0  0
  -26.8920   18.6270  -19.7360 C   0  0  0  0  0  0  0  0  0  0  0  0
  -25.7610   18.6610  -21.1700 S   0  0  0  0  0  0  0  0  0  0  0  0
  -29.9290   18.3070  -18.5220 N   0  0  0  0  0  0  0  0  0  0  0  0
  -30.7700   18.3950  -17.3400 C   0  0  2  0  0  0  0  0  0  0  0  0
  -31.9350   17.4110  -17.3840 C   0  0  0  0  0  0  0  0  0  0  0  0
  -32.9210   17.5730  -16.6700 O   0  0  0  0  0  0  0  0  0  0  0  0
  -31.2800   19.8380  -17.1650 C   0  0  0  0  0  0  0  0  0  0  0  0
  -30.2030   20.7920  -16.6290 C   0  0  0  0  0  0  0  0  0  0  0  0
  -30.6450   22.2460  -16.5720 C   0  0  0  0  0  0  0  0  0  0  0  0
  -31.5950   22.6540  -17.2480 O   0  0  0  0  0  0  0  0  0  0  0  0
  -29.9480   23.0420  -15.7600 N   0  0  0  0  0  0  0  0  0  0  0  0
  -31.8110   16.3840  -18.2230 N   0  0  0  0  0  0  0  0  0  0  0  0
  -32.7620   15.2810  -18.2030 C   0  0  0  0  0  0  0  0  0  0  0  0
  -34.1130   15.6370  -18.8000 C   0  0  0  0  0  0  0  0  0  0  0  0
  -35.1100   14.9430  -18.5780 O   0  0  0  0  0  0  0  0  0  0  0  0
  -34.1570   16.7220  -19.5620 N   0  0  0  0  0  0  0  0  0  0  0  0
  -35.4280   17.2400  -20.0440 C   0  0  2  0  0  0  0  0  0  0  0  0
  -35.5120   17.1890  -21.5730 C   0  0  0  0  0  0  0  0  0  0  0  0
  -34.5360   17.4730  -22.2740 O   0  0  0  0  0  0  0  0  0  0  0  0
  -35.6090   18.6750  -19.5350 C   0  0  0  0  0  0  0  0  0  0  0  0
  -37.0260   19.1980  -19.6140 C   0  0  0  0  0  0  0  0  0  0  0  0
  -37.2870   20.2510  -18.5370 C   0  0  0  0  0  0  0  0  0  0  0  0
  -37.3380   21.6550  -19.1320 C   0  0  0  0  0  0  0  0  0  0  0  0
  -38.5280   22.4320  -18.6550 N   0  0  0  0  0  0  0  0  0  0  0  0
  2  1  1  6
  3  2  1  0
  4  3  2  0
  5  2  1  0
  6  5  1  0
  7  6  1  0
  8  7  2  0
  9  7  1  0
 10  3  1  0
 11 10  1  0
 12 11  1  0
 13 12  2  0
 11 14  1  1
 15 14  1  0
 16 15  2  0
 17 15  1  0
 19 18  1  6
 20 19  1  0
 21 20  2  0
 22 19  1  0
 23 22  1  0
 22 24  1  6
 25 20  1  0
 26 25  1  0
 27 26  1  0
 28 27  2  0
 26 29  1  6
 30 29  1  0
 31 30  1  0
 32 31  1  0
 33 32  1  0
 34 33  1  0
 35 33  2  0
 36 27  1  0
 37 36  1  0
 38 37  1  0
 39 38  2  0
 37 40  1  6
 41 40  1  0
 42 41  2  0
 43 41  1  0
 44 42  1  0
 45 43  2  0
 46 45  1  0
 46 44  2  0
 47 38  1  0
 48 47  1  0
 49 48  1  0
 50 49  2  0
 48 51  1  1
 52 51  1  0
 53 52  1  0
 54 52  2  0
 55 53  2  0
 56 54  1  0
 56 55  1  0
 58 57  1  0
 59 58  1  0
 60 59  2  0
 58 61  1  1
 62 59  1  0
 63 62  1  0
 64 63  1  0
 65 64  2  0
 63 66  1  6
 67 66  1  0
 68 64  1  0
 69 68  1  0
 70 69  1  0
 71 70  2  0
 69 72  1  1
 73 72  1  0
 74 73  1  0
 75 74  1  0
 76 75  1  0
 77 70  1  0
 78 77  1  0
 79 78  1  0
 80 79  2  0
 78 81  1  6
 82 81  1  0
 84 83  1  6
 85 84  1  0
 86 85  2  0
 87 84  1  0
 88 87  1  0
 90 89  1  1
 91 90  1  0
 92 91  2  0
 93 90  1  0
 94 93  1  0
 95 94  2  0
 96 94  1  0
 97 91  1  0
 98 97  1  0
 99 98  1  0
100 99  2  0
 98101  1  1
102101  1  0
102 82  1  0
103 99  1  0
104103  1  0
105104  1  0
106105  2  0
104107  1  6
108107  1  0
109108  1  0
110109  2  0
111109  1  0
112105  1  0
113112  1  0
114113  1  0
115114  2  0
116114  1  0
117116  1  0
118117  1  0
119118  2  0
117120  1  6
121120  1  0
122121  1  0
123122  1  0
124123  1  0
M  END
$$$$
