
     RDKit          3D

106103  0  0  0  0  0  0  0  0999 V2000
   94.7190   55.0620   20.0630 N   0  0  0  0  0  0  0  0  0  0  0  0
   93.4680   55.1390   19.2850 C   0  0  2  0  0  0  0  0  0  0  0  0
   93.6510   53.9400   18.3310 C   0  0  0  0  0  0  0  0  0  0  0  0
   94.7520   53.7650   17.8220 O   0  0  0  0  0  0  0  0  0  0  0  0
   93.4100   56.4350   18.4950 C   0  0  0  0  0  0  0  0  0  0  0  0
   92.5860   53.1490   18.0830 N   0  0  0  0  0  0  0  0  0  0  0  0
   92.7600   51.7990   17.4810 C   0  0  2  0  0  0  0  0  0  0  0  0
   91.6010   51.4620   16.5330 C   0  0  0  0  0  0  0  0  0  0  0  0
   91.4540   50.2880   16.0460 O   0  0  0  0  0  0  0  0  0  0  0  0
   92.8530   50.7800   18.6330 C   0  0  0  0  0  0  0  0  0  0  0  0
   94.2210   50.8020   19.0570 O   0  0  0  0  0  0  0  0  0  0  0  0
   90.7520   52.4510   16.3320 N   0  0  0  0  0  0  0  0  0  0  0  0
   89.7960   52.4440   15.3030 C   0  0  2  0  0  0  0  0  0  0  0  0
   89.6670   53.8620   14.6740 C   0  0  0  0  0  0  0  0  0  0  0  0
   89.9950   54.8570   15.3310 O   0  0  0  0  0  0  0  0  0  0  0  0
   88.4860   51.9810   15.7950 C   0  0  0  0  0  0  0  0  0  0  0  0
   87.8590   52.9670   16.5500 O   0  0  0  0  0  0  0  0  0  0  0  0
   89.2390   53.9720   13.3970 N   0  0  0  0  0  0  0  0  0  0  0  0
   88.9850   55.3070   12.8400 C   0  0  2  0  0  0  0  0  0  0  0  0
   88.0720   56.0920   13.8020 C   0  0  0  0  0  0  0  0  0  0  0  0
   88.4070   57.2580   13.9740 O   0  0  0  0  0  0  0  0  0  0  0  0
   88.3120   54.9970   11.5050 C   0  0  0  0  0  0  0  0  0  0  0  0
   87.7740   53.6390   11.7230 C   0  0  0  0  0  0  0  0  0  0  0  0
   88.9300   52.9260   12.3950 C   0  0  0  0  0  0  0  0  0  0  0  0
   87.0470   55.4930   14.4440 N   0  0  0  0  0  0  0  0  0  0  0  0
   86.2840   56.2680   15.4140 C   0  0  2  0  0  0  0  0  0  0  0  0
   87.1400   56.9050   16.5380 C   0  0  0  0  0  0  0  0  0  0  0  0
   86.8660   58.0370   16.9730 O   0  0  0  0  0  0  0  0  0  0  0  0
   85.0420   55.5690   15.9620 C   0  0  0  0  0  0  0  0  0  0  0  0
   84.1860   54.9050   14.8820 C   0  0  0  0  0  0  0  0  0  0  0  0
   82.9870   54.4170   15.5450 C   0  0  0  0  0  0  0  0  0  0  0  0
   83.8210   55.8990   13.7990 C   0  0  0  0  0  0  0  0  0  0  0  0
   90.2060   57.6690   16.4380 N   0  0  0  0  0  0  0  0  0  0  0  0
   90.9890   58.7040   15.8040 C   0  0  2  0  0  0  0  0  0  0  0  0
   90.2140   60.0710   15.7430 C   0  0  0  0  0  0  0  0  0  0  0  0
   90.7070   61.0770   16.1810 O   0  0  0  0  0  0  0  0  0  0  0  0
   91.3520   58.2140   14.4630 C   0  0  0  0  0  0  0  0  0  0  0  0
   92.6190   57.4310   14.5110 C   0  0  0  0  0  0  0  0  0  0  0  0
   92.7710   56.2000   13.8890 N   0  0  0  0  0  0  0  0  0  0  0  0
   93.7860   57.6960   15.1250 C   0  0  0  0  0  0  0  0  0  0  0  0
   93.9920   55.7460   14.1150 C   0  0  0  0  0  0  0  0  0  0  0  0
   94.6310   56.6290   14.8670 N   0  0  0  0  0  0  0  0  0  0  0  0
   89.0080   60.0020   15.2470 N   0  0  0  0  0  0  0  0  0  0  0  0
   88.0870   61.0940   15.2880 C   0  0  2  0  0  0  0  0  0  0  0  0
   87.8970   61.6260   16.7400 C   0  0  0  0  0  0  0  0  0  0  0  0
   88.2830   62.7930   17.0130 O   0  0  0  0  0  0  0  0  0  0  0  0
   86.7910   60.6640   14.6700 C   0  0  0  0  0  0  0  0  0  0  0  0
   86.9080   60.5700   13.1430 C   0  0  0  0  0  0  0  0  0  0  0  0
   87.9750   60.9460   12.4670 O   0  0  0  0  0  0  0  0  0  0  0  0
   85.8980   60.1490   12.5650 O   0  0  0  0  0  0  0  0  0  0  0  0
   87.3780   60.7890   17.6270 N   0  0  0  0  0  0  0  0  0  0  0  0
   87.1980   61.1160   19.0420 C   0  0  2  0  0  0  0  0  0  0  0  0
   88.4720   61.6700   19.6180 C   0  0  0  0  0  0  0  0  0  0  0  0
   88.4360   62.7570   20.2480 O   0  0  0  0  0  0  0  0  0  0  0  0
   86.5550   59.9250   19.8800 C   0  0  0  0  0  0  0  0  0  0  0  0
   86.5500   60.0190   21.4900 C   0  0  0  0  0  0  0  0  0  0  0  0
   87.8870   59.5210   22.0550 C   0  0  0  0  0  0  0  0  0  0  0  0
   88.4540   58.6010   21.5250 O   0  0  0  0  0  0  0  0  0  0  0  0
   88.4030   60.1490   23.0750 N   0  0  0  0  0  0  0  0  0  0  0  0
   90.7700   63.2110   18.2320 N   0  0  0  0  0  0  0  0  0  0  0  0
   91.1900   64.4010   17.4840 C   0  0  2  0  0  0  0  0  0  0  0  0
   90.2950   65.5880   17.9750 C   0  0  0  0  0  0  0  0  0  0  0  0
   90.8690   66.5730   18.4220 O   0  0  0  0  0  0  0  0  0  0  0  0
   90.9830   64.2020   16.0010 C   0  0  0  0  0  0  0  0  0  0  0  0
   91.3420   65.4390   15.2700 C   0  0  0  0  0  0  0  0  0  0  0  0
   92.6040   65.8270   14.8290 C   0  0  0  0  0  0  0  0  0  0  0  0
   90.4490   66.5280   14.9570 C   0  0  0  0  0  0  0  0  0  0  0  0
   92.5160   67.0660   14.2460 N   0  0  0  0  0  0  0  0  0  0  0  0
   91.2180   67.5220   14.3080 C   0  0  0  0  0  0  0  0  0  0  0  0
   89.0830   66.7520   15.1500 C   0  0  0  0  0  0  0  0  0  0  0  0
   90.6530   68.7190   13.8340 C   0  0  0  0  0  0  0  0  0  0  0  0
   88.5260   67.9560   14.7000 C   0  0  0  0  0  0  0  0  0  0  0  0
   89.3090   68.9180   14.0600 C   0  0  0  0  0  0  0  0  0  0  0  0
   81.8930   63.8240   12.6600 N   0  0  0  0  0  0  0  0  0  0  0  0
   82.3420   62.7640   13.5430 C   0  0  2  0  0  0  0  0  0  0  0  0
   81.1640   61.9220   14.2250 C   0  0  0  0  0  0  0  0  0  0  0  0
   81.1460   60.6280   14.3120 O   0  0  0  0  0  0  0  0  0  0  0  0
   83.2440   63.4520   14.5190 C   0  0  2  0  0  0  0  0  0  0  0  0
   84.3410   64.0630   13.6920 C   0  0  0  0  0  0  0  0  0  0  0  0
   83.6990   62.5160   15.6650 C   0  0  0  0  0  0  0  0  0  0  0  0
   85.6330   64.3510   14.3950 C   0  0  0  0  0  0  0  0  0  0  0  0
   79.2160   59.8840   11.5230 N   0  0  0  0  0  0  0  0  0  0  0  0
   80.0110   58.8190   11.0260 C   0  0  2  0  0  0  0  0  0  0  0  0
   80.1540   57.7060   12.1110 C   0  0  0  0  0  0  0  0  0  0  0  0
   80.1760   56.5020   11.7830 O   0  0  0  0  0  0  0  0  0  0  0  0
   81.3180   59.4520   10.5460 C   0  0  0  0  0  0  0  0  0  0  0  0
   82.4580   58.5880   10.5920 C   0  0  0  0  0  0  0  0  0  0  0  0
   83.8160   59.2640   10.2010 C   0  0  0  0  0  0  0  0  0  0  0  0
   83.6780   60.2900    9.1770 N   0  0  0  0  0  0  0  0  0  0  0  0
   84.1440   61.5640    9.2460 C   0  0  0  0  0  0  0  0  0  0  0  0
   84.8220   62.0240   10.3140 N   0  0  0  0  0  0  0  0  0  0  0  0
   83.9100   62.3870    8.1920 N   0  0  0  0  0  0  0  0  0  0  0  0
   86.2430   49.1900   13.5660 N   0  0  0  0  0  0  0  0  0  0  0  0
   87.0590   48.3660   12.7180 C   0  0  2  0  0  0  0  0  0  0  0  0
   88.3640   48.5560   13.3910 C   0  0  0  0  0  0  0  0  0  0  0  0
   88.5770   49.6380   13.9420 O   0  0  0  0  0  0  0  0  0  0  0  0
   87.0440   48.9280   11.2610 C   0  0  0  0  0  0  0  0  0  0  0  0
   87.9960   49.9730   11.0020 O   0  0  0  0  0  0  0  0  0  0  0  0
   92.5080   48.6460   13.9870 N   0  0  0  0  0  0  0  0  0  0  0  0
   93.5620   49.0380   13.0930 C   0  0  2  0  0  0  0  0  0  0  0  0
   94.6970   48.1160   13.0530 C   0  0  0  0  0  0  0  0  0  0  0  0
   95.4880   48.1700   12.1090 O   0  0  0  0  0  0  0  0  0  0  0  0
   94.2180   50.3470   13.5480 C   0  0  0  0  0  0  0  0  0  0  0  0
   93.2880   51.6010   13.4390 C   0  0  0  0  0  0  0  0  0  0  0  0
   92.1450   51.5990   12.8200 O   0  0  0  0  0  0  0  0  0  0  0  0
   93.6800   52.6070   14.1270 O   0  0  0  0  0  0  0  0  0  0  0  0
  2  1  1  0
  3  2  1  0
  4  3  2  0
  2  5  1  6
  6  3  1  0
  7  6  1  0
  8  7  1  0
  9  8  2  0
  7 10  1  1
 11 10  1  0
 12  8  1  0
 13 12  1  0
 14 13  1  0
 15 14  2  0
 13 16  1  1
 17 16  1  0
 18 14  1  0
 19 18  1  0
 19 20  1  1
 21 20  2  0
 22 19  1  0
 23 22  1  0
 24 23  1  0
 24 18  1  0
 25 20  1  0
 26 25  1  0
 27 26  1  0
 28 27  2  0
 26 29  1  1
 30 29  1  0
 31 30  1  0
 32 30  1  0
 34 33  1  6
 35 34  1  0
 36 35  2  0
 37 34  1  0
 38 37  1  0
 39 38  1  0
 40 38  2  0
 41 39  2  0
 42 41  1  0
 42 40  1  0
 43 35  1  0
 44 43  1  0
 45 44  1  0
 46 45  2  0
 44 47  1  1
 48 47  1  0
 49 48  2  0
 50 48  1  0
 51 45  1  0
 52 51  1  0
 53 52  1  0
 54 53  2  0
 52 55  1  1
 56 55  1  0
 57 56  1  0
 58 57  2  0
 59 57  1  0
 61 60  1  1
 62 61  1  0
 63 62  2  0
 64 61  1  0
 65 64  1  0
 66 65  2  0
 67 65  1  0
 68 66  1  0
 69 68  1  0
 69 67  2  0
 70 67  1  0
 71 69  1  0
 72 70  2  0
 73 72  1  0
 73 71  2  0
 75 74  1  6
 76 75  1  0
 77 76  2  0
 78 75  1  0
 79 78  1  0
 78 80  1  1
 81 79  1  0
 83 82  1  1
 84 83  1  0
 85 84  2  0
 86 83  1  0
 87 86  1  0
 88 87  1  0
 89 88  1  0
 90 89  1  0
 91 90  1  0
 92 90  2  0
 94 93  1  1
 95 94  1  0
 96 95  2  0
 97 94  1  0
 98 97  1  0
100 99  1  1
101100  1  0
102101  2  0
103100  1  0
104103  1  0
105104  2  0
106104  1  0
M  END
$$$$
