
     RDKit          3D

135131  0  0  0  0  0  0  0  0999 V2000
  -24.4120  -26.1720  225.1310 N   0  0  0  0  0  0  0  0  0  0  0  0
  -23.0210  -25.9570  225.4970 C   0  0  2  0  0  0  0  0  0  0  0  0
  -22.0450  -27.0200  224.9730 C   0  0  0  0  0  0  0  0  0  0  0  0
  -22.4250  -28.1730  224.7500 O   0  0  0  0  0  0  0  0  0  0  0  0
  -22.9650  -25.8600  227.0320 C   0  0  0  0  0  0  0  0  0  0  0  0
  -21.6800  -25.2320  227.5570 C   0  0  0  0  0  0  0  0  0  0  0  0
  -21.1300  -24.2990  226.9650 O   0  0  0  0  0  0  0  0  0  0  0  0
  -21.2160  -25.7290  228.6960 N   0  0  0  0  0  0  0  0  0  0  0  0
  -20.7920  -26.5990  224.7610 N   0  0  0  0  0  0  0  0  0  0  0  0
  -19.6920  -27.4600  224.2920 C   0  0  2  0  0  0  0  0  0  0  0  0
  -18.5750  -27.3190  225.3360 C   0  0  0  0  0  0  0  0  0  0  0  0
  -18.0260  -26.2310  225.5070 O   0  0  0  0  0  0  0  0  0  0  0  0
  -19.1350  -26.9750  222.9440 C   0  0  0  0  0  0  0  0  0  0  0  0
  -20.1690  -26.4920  221.9240 C   0  0  0  0  0  0  0  0  0  0  0  0
  -19.4540  -25.5910  220.4840 S   0  0  0  0  0  0  0  0  0  0  0  0
  -20.6840  -25.9030  219.2370 C   0  0  0  0  0  0  0  0  0  0  0  0
  -18.2340  -28.3970  226.0350 N   0  0  0  0  0  0  0  0  0  0  0  0
  -17.1820  -28.3120  227.0510 C   0  0  2  0  0  0  0  0  0  0  0  0
  -16.2620  -29.5230  227.1360 C   0  0  0  0  0  0  0  0  0  0  0  0
  -16.6320  -30.6410  226.7650 O   0  0  0  0  0  0  0  0  0  0  0  0
  -17.7840  -28.0900  228.4440 C   0  0  0  0  0  0  0  0  0  0  0  0
  -18.5300  -26.7890  228.6360 C   0  0  0  0  0  0  0  0  0  0  0  0
  -19.0690  -26.6440  230.0500 C   0  0  0  0  0  0  0  0  0  0  0  0
  -19.6150  -27.6400  230.5760 O   0  0  0  0  0  0  0  0  0  0  0  0
  -18.9540  -25.5370  230.6270 O   0  0  0  0  0  0  0  0  0  0  0  0
  -15.0570  -29.2760  227.6400 N   0  0  0  0  0  0  0  0  0  0  0  0
  -14.0580  -30.3130  227.8420 C   0  0  2  0  0  0  0  0  0  0  0  0
  -14.0510  -30.5380  229.3490 C   0  0  0  0  0  0  0  0  0  0  0  0
  -13.4970  -29.7330  230.1050 O   0  0  0  0  0  0  0  0  0  0  0  0
  -12.6990  -29.8290  227.3720 C   0  0  0  0  0  0  0  0  0  0  0  0
  -14.6810  -31.6210  229.7850 N   0  0  0  0  0  0  0  0  0  0  0  0
  -14.7770  -31.9200  231.2080 C   0  0  2  0  0  0  0  0  0  0  0  0
  -13.8210  -33.0110  231.6500 C   0  0  0  0  0  0  0  0  0  0  0  0
  -13.3240  -33.7800  230.8300 O   0  0  0  0  0  0  0  0  0  0  0  0
  -16.2050  -32.3200  231.5570 C   0  0  0  0  0  0  0  0  0  0  0  0
  -13.0570  -36.4270  226.7550 N   0  0  0  0  0  0  0  0  0  0  0  0
  -13.4930  -35.3950  227.6910 C   0  0  2  0  0  0  0  0  0  0  0  0
  -14.5050  -34.4380  227.0560 C   0  0  0  0  0  0  0  0  0  0  0  0
  -14.9390  -33.4650  227.6880 O   0  0  0  0  0  0  0  0  0  0  0  0
  -12.2910  -34.5810  228.1990 C   0  0  0  0  0  0  0  0  0  0  0  0
  -11.1700  -35.4520  228.7400 C   0  0  0  0  0  0  0  0  0  0  0  0
  -11.4050  -36.5350  229.2850 O   0  0  0  0  0  0  0  0  0  0  0  0
   -9.9380  -34.9670  228.6120 N   0  0  0  0  0  0  0  0  0  0  0  0
  -18.0360  -33.4050  225.9510 N   0  0  0  0  0  0  0  0  0  0  0  0
  -19.4240  -33.6790  226.2740 C   0  0  2  0  0  0  0  0  0  0  0  0
  -20.2620  -32.5760  225.6570 C   0  0  0  0  0  0  0  0  0  0  0  0
  -19.8730  -31.4060  225.6570 O   0  0  0  0  0  0  0  0  0  0  0  0
  -19.6210  -33.6830  227.7910 C   0  0  0  0  0  0  0  0  0  0  0  0
  -20.7970  -34.5140  228.2980 C   0  0  0  0  0  0  0  0  0  0  0  0
  -20.9580  -34.3420  229.8120 C   0  0  0  0  0  0  0  0  0  0  0  0
  -21.9230  -35.3590  230.4410 C   0  0  0  0  0  0  0  0  0  0  0  0
  -21.2990  -36.6840  230.7800 N   0  0  0  0  0  0  0  0  0  0  0  0
  -21.4160  -32.9580  225.1270 N   0  0  0  0  0  0  0  0  0  0  0  0
  -22.3230  -32.0100  224.5010 C   0  0  2  0  0  0  0  0  0  0  0  0
  -23.5870  -31.8380  225.3380 C   0  0  0  0  0  0  0  0  0  0  0  0
  -23.9930  -32.7460  226.0670 O   0  0  0  0  0  0  0  0  0  0  0  0
  -22.6620  -32.4870  223.0820 C   0  0  0  0  0  0  0  0  0  0  0  0
  -21.5070  -32.2910  222.1240 C   0  0  0  0  0  0  0  0  0  0  0  0
  -21.0700  -31.0060  221.7960 C   0  0  0  0  0  0  0  0  0  0  0  0
  -20.8030  -33.3770  221.6020 C   0  0  0  0  0  0  0  0  0  0  0  0
  -19.9620  -30.7990  220.9810 C   0  0  0  0  0  0  0  0  0  0  0  0
  -19.6860  -33.1810  220.7830 C   0  0  0  0  0  0  0  0  0  0  0  0
  -19.2720  -31.8860  220.4780 C   0  0  0  0  0  0  0  0  0  0  0  0
  -18.1680  -31.6610  219.6820 O   0  0  0  0  0  0  0  0  0  0  0  0
  -24.1950  -30.6630  225.2490 N   0  0  0  0  0  0  0  0  0  0  0  0
  -25.4060  -30.3890  225.9980 C   0  0  2  0  0  0  0  0  0  0  0  0
  -26.4990  -29.9330  225.0320 C   0  0  0  0  0  0  0  0  0  0  0  0
  -26.5070  -28.7980  224.5580 O   0  0  0  0  0  0  0  0  0  0  0  0
  -25.1260  -29.3140  227.0470 C   0  0  0  0  0  0  0  0  0  0  0  0
  -25.9730  -29.4330  228.2990 C   0  0  0  0  0  0  0  0  0  0  0  0
  -25.5810  -28.4150  229.3530 C   0  0  0  0  0  0  0  0  0  0  0  0
  -25.6490  -27.2050  229.0500 O   0  0  0  0  0  0  0  0  0  0  0  0
  -25.2040  -28.8170  230.4810 O   0  0  0  0  0  0  0  0  0  0  0  0
  -27.4190  -30.8370  224.7420 N   0  0  0  0  0  0  0  0  0  0  0  0
  -28.5090  -30.5550  223.8270 C   0  0  2  0  0  0  0  0  0  0  0  0
  -29.8090  -30.3640  224.5760 C   0  0  0  0  0  0  0  0  0  0  0  0
  -30.1400  -31.1430  225.4700 O   0  0  0  0  0  0  0  0  0  0  0  0
  -28.6970  -31.7170  222.8390 C   0  0  0  0  0  0  0  0  0  0  0  0
  -29.7980  -31.3980  221.8510 C   0  0  0  0  0  0  0  0  0  0  0  0
  -27.3930  -31.9920  222.1210 C   0  0  0  0  0  0  0  0  0  0  0  0
  -33.2190  -31.0850  228.9430 N   0  0  0  0  0  0  0  0  0  0  0  0
  -31.8410  -30.7430  228.6470 C   0  0  2  0  0  0  0  0  0  0  0  0
  -30.9830  -31.9220  229.0570 C   0  0  0  0  0  0  0  0  0  0  0  0
  -30.8120  -32.1770  230.2370 O   0  0  0  0  0  0  0  0  0  0  0  0
  -31.4320  -29.4930  229.4210 C   0  0  0  0  0  0  0  0  0  0  0  0
  -30.1300  -28.8960  228.9570 C   0  0  0  0  0  0  0  0  0  0  0  0
  -29.8680  -27.5410  229.6060 C   0  0  0  0  0  0  0  0  0  0  0  0
  -28.9620  -27.6230  230.7540 N   0  0  0  0  0  0  0  0  0  0  0  0
  -29.2730  -28.1370  231.9470 C   0  0  0  0  0  0  0  0  0  0  0  0
  -30.4890  -28.6340  232.1860 N   0  0  0  0  0  0  0  0  0  0  0  0
  -28.3550  -28.1450  232.9100 N   0  0  0  0  0  0  0  0  0  0  0  0
  -30.4600  -32.6520  228.0820 N   0  0  0  0  0  0  0  0  0  0  0  0
  -29.6200  -33.8110  228.3590 C   0  0  2  0  0  0  0  0  0  0  0  0
  -28.2570  -33.6010  227.7140 C   0  0  0  0  0  0  0  0  0  0  0  0
  -28.0710  -32.6660  226.9400 O   0  0  0  0  0  0  0  0  0  0  0  0
  -30.2720  -35.0590  227.7780 C   0  0  0  0  0  0  0  0  0  0  0  0
  -30.4840  -34.9740  226.3050 C   0  0  0  0  0  0  0  0  0  0  0  0
  -29.4370  -35.2100  225.4260 C   0  0  0  0  0  0  0  0  0  0  0  0
  -31.7090  -34.5620  225.7930 C   0  0  0  0  0  0  0  0  0  0  0  0
  -29.6120  -35.0240  224.0580 C   0  0  0  0  0  0  0  0  0  0  0  0
  -31.8890  -34.3760  224.4300 C   0  0  0  0  0  0  0  0  0  0  0  0
  -30.8380  -34.6060  223.5630 C   0  0  0  0  0  0  0  0  0  0  0  0
  -27.3090  -34.4770  228.0230 N   0  0  0  0  0  0  0  0  0  0  0  0
  -25.9680  -34.3640  227.4540 C   0  0  2  0  0  0  0  0  0  0  0  0
  -25.6070  -35.5450  226.5480 C   0  0  0  0  0  0  0  0  0  0  0  0
  -26.1420  -36.6540  226.6890 O   0  0  0  0  0  0  0  0  0  0  0  0
  -24.9280  -34.2670  228.5640 C   0  0  0  0  0  0  0  0  0  0  0  0
  -24.8910  -35.4820  229.2890 O   0  0  0  0  0  0  0  0  0  0  0  0
  -24.6950  -35.2940  225.6100 N   0  0  0  0  0  0  0  0  0  0  0  0
  -24.2500  -36.3250  224.6870 C   0  0  2  0  0  0  0  0  0  0  0  0
  -22.7510  -36.4620  224.7970 C   0  0  0  0  0  0  0  0  0  0  0  0
  -22.0280  -35.4690  224.8690 O   0  0  0  0  0  0  0  0  0  0  0  0
  -24.6260  -35.9870  223.2470 C   0  0  2  0  0  0  0  0  0  0  0  0
  -26.1340  -36.0750  223.0980 C   0  0  0  0  0  0  0  0  0  0  0  0
  -24.0060  -36.9860  222.2930 C   0  0  0  0  0  0  0  0  0  0  0  0
  -26.6400  -35.4390  221.8430 C   0  0  0  0  0  0  0  0  0  0  0  0
  -22.2950  -37.7060  224.8150 N   0  0  0  0  0  0  0  0  0  0  0  0
  -20.8820  -37.9870  224.9510 C   0  0  2  0  0  0  0  0  0  0  0  0
  -20.4700  -39.0570  223.9780 C   0  0  0  0  0  0  0  0  0  0  0  0
  -21.2880  -39.8510  223.5280 O   0  0  0  0  0  0  0  0  0  0  0  0
  -20.5490  -38.5190  226.3590 C   0  0  2  0  0  0  0  0  0  0  0  0
  -21.0970  -39.8380  226.5090 O   0  0  0  0  0  0  0  0  0  0  0  0
  -21.1390  -37.6130  227.4330 C   0  0  0  0  0  0  0  0  0  0  0  0
  -19.0000  -41.4980  224.6260 N   0  0  0  0  0  0  0  0  0  0  0  0
  -19.2750  -42.7380  225.3460 C   0  0  2  0  0  0  0  0  0  0  0  0
  -20.6560  -43.2480  224.9400 C   0  0  0  0  0  0  0  0  0  0  0  0
  -20.7960  -44.3780  224.4600 O   0  0  0  0  0  0  0  0  0  0  0  0
  -19.2220  -42.4920  226.8570 C   0  0  0  0  0  0  0  0  0  0  0  0
  -11.4400  -22.6330  230.1700 N   0  0  0  0  0  0  0  0  0  0  0  0
  -12.3010  -23.2290  229.1630 C   0  0  2  0  0  0  0  0  0  0  0  0
  -12.3900  -22.5430  227.8140 C   0  0  0  0  0  0  0  0  0  0  0  0
  -12.2970  -21.3220  227.7070 O   0  0  0  0  0  0  0  0  0  0  0  0
  -13.7160  -23.3630  229.7100 C   0  0  2  0  0  0  0  0  0  0  0  0
  -13.6570  -23.6090  231.1230 O   0  0  0  0  0  0  0  0  0  0  0  0
  -14.4330  -24.5190  229.0260 C   0  0  0  0  0  0  0  0  0  0  0  0
  2  1  1  1
  3  2  1  0
  4  3  2  0
  5  2  1  0
  6  5  1  0
  7  6  2  0
  8  6  1  0
  9  3  1  0
 10  9  1  0
 11 10  1  0
 12 11  2  0
 10 13  1  6
 14 13  1  0
 15 14  1  0
 16 15  1  0
 17 11  1  0
 18 17  1  0
 19 18  1  0
 20 19  2  0
 18 21  1  1
 22 21  1  0
 23 22  1  0
 24 23  2  0
 25 23  1  0
 26 19  1  0
 27 26  1  0
 28 27  1  0
 29 28  2  0
 27 30  1  1
 31 28  1  0
 32 31  1  0
 33 32  1  0
 34 33  2  0
 32 35  1  6
 37 36  1  6
 38 37  1  0
 39 38  2  0
 40 37  1  0
 41 40  1  0
 42 41  2  0
 43 41  1  0
 45 44  1  1
 46 45  1  0
 47 46  2  0
 48 45  1  0
 49 48  1  0
 50 49  1  0
 51 50  1  0
 52 51  1  0
 53 46  1  0
 54 53  1  0
 55 54  1  0
 56 55  2  0
 54 57  1  6
 58 57  1  0
 59 58  2  0
 60 58  1  0
 61 59  1  0
 62 60  2  0
 63 62  1  0
 63 61  2  0
 64 63  1  0
 65 55  1  0
 66 65  1  0
 67 66  1  0
 68 67  2  0
 66 69  1  1
 70 69  1  0
 71 70  1  0
 72 71  2  0
 73 71  1  0
 74 67  1  0
 75 74  1  1
 76 75  1  0
 77 76  2  0
 78 75  1  0
 79 78  1  0
 80 78  1  0
 82 81  1  1
 83 82  1  0
 84 83  2  0
 85 82  1  0
 86 85  1  0
 87 86  1  0
 88 87  1  0
 89 88  1  0
 90 89  1  0
 91 89  2  0
 92 83  1  0
 93 92  1  0
 94 93  1  0
 95 94  2  0
 93 96  1  6
 97 96  1  0
 98 97  2  0
 99 97  1  0
100 98  1  0
101 99  2  0
102101  1  0
102100  2  0
103 94  1  0
104103  1  0
105104  1  0
106105  2  0
104107  1  1
108107  1  0
109105  1  0
110109  1  1
111110  1  0
112111  2  0
113110  1  0
114113  1  0
113115  1  6
116114  1  0
117111  1  0
118117  1  1
119118  1  0
120119  2  0
121118  1  0
122121  1  0
121123  1  1
125124  1  0
126125  1  0
127126  2  0
125128  1  1
130129  1  1
131130  1  0
132131  2  0
133130  1  0
134133  1  0
133135  1  6
M  END
$$$$
