
     RDKit          3D

152148  0  0  0  0  0  0  0  0999 V2000
   20.8120   72.2720   69.4870 N   0  0  0  0  0  0  0  0  0  0  0  0
   21.2460   71.7410   70.7750 C   0  0  2  0  0  0  0  0  0  0  0  0
   20.0770   71.6220   71.7220 C   0  0  0  0  0  0  0  0  0  0  0  0
   19.9340   70.6160   72.4110 O   0  0  0  0  0  0  0  0  0  0  0  0
   22.3150   72.6230   71.4310 C   0  0  0  0  0  0  0  0  0  0  0  0
   23.5290   71.9830   72.1160 C   0  0  0  0  0  0  0  0  0  0  0  0
   24.1730   72.9170   73.1830 C   0  0  0  0  0  0  0  0  0  0  0  0
   23.2540   70.5930   72.6920 C   0  0  0  0  0  0  0  0  0  0  0  0
   18.0290   68.5930   71.1150 N   0  0  0  0  0  0  0  0  0  0  0  0
   18.7040   67.3880   71.6110 C   0  0  2  0  0  0  0  0  0  0  0  0
   18.5230   67.2450   73.1190 C   0  0  0  0  0  0  0  0  0  0  0  0
   18.2840   66.1420   73.6060 O   0  0  0  0  0  0  0  0  0  0  0  0
   20.1970   67.4550   71.2950 C   0  0  0  0  0  0  0  0  0  0  0  0
   20.8180   66.8100   70.0620 C   0  0  0  0  0  0  0  0  0  0  0  0
   19.8810   66.6540   68.8990 C   0  0  0  0  0  0  0  0  0  0  0  0
   22.0800   67.5530   69.6620 C   0  0  0  0  0  0  0  0  0  0  0  0
   18.6420   68.3530   73.8460 N   0  0  0  0  0  0  0  0  0  0  0  0
   18.4040   68.3460   75.3070 C   0  0  2  0  0  0  0  0  0  0  0  0
   16.9640   67.9280   75.6250 C   0  0  0  0  0  0  0  0  0  0  0  0
   16.7420   67.1540   76.5550 O   0  0  0  0  0  0  0  0  0  0  0  0
   18.7320   69.6930   76.0130 C   0  0  2  0  0  0  0  0  0  0  0  0
   17.8580   70.7460   75.5560 O   0  0  0  0  0  0  0  0  0  0  0  0
   20.2070   70.0980   75.8060 C   0  0  0  0  0  0  0  0  0  0  0  0
   16.0000   68.4130   74.8430 N   0  0  0  0  0  0  0  0  0  0  0  0
   14.5910   68.0110   75.0260 C   0  0  2  0  0  0  0  0  0  0  0  0
   14.4340   66.4880   74.8520 C   0  0  0  0  0  0  0  0  0  0  0  0
   13.8210   65.8120   75.6780 O   0  0  0  0  0  0  0  0  0  0  0  0
   13.6450   68.7520   74.0490 C   0  0  0  0  0  0  0  0  0  0  0  0
   12.2100   68.1560   74.0840 C   0  0  0  0  0  0  0  0  0  0  0  0
   13.6150   70.2440   74.3430 C   0  0  0  0  0  0  0  0  0  0  0  0
   15.0070   65.9650   73.7710 N   0  0  0  0  0  0  0  0  0  0  0  0
   14.8990   64.5570   73.4340 C   0  0  2  0  0  0  0  0  0  0  0  0
   15.5500   63.7530   74.5520 C   0  0  0  0  0  0  0  0  0  0  0  0
   14.9720   62.7890   75.0490 O   0  0  0  0  0  0  0  0  0  0  0  0
   15.6260   64.3080   72.1210 C   0  0  0  0  0  0  0  0  0  0  0  0
   15.0740   63.2090   71.3190 C   0  0  0  0  0  0  0  0  0  0  0  0
   15.4140   61.8830   71.3900 C   0  0  0  0  0  0  0  0  0  0  0  0
   14.0900   63.3210   70.2860 C   0  0  0  0  0  0  0  0  0  0  0  0
   14.7070   61.1680   70.4560 N   0  0  0  0  0  0  0  0  0  0  0  0
   13.8870   62.0250   69.7630 C   0  0  0  0  0  0  0  0  0  0  0  0
   13.3610   64.3940   69.7440 C   0  0  0  0  0  0  0  0  0  0  0  0
   12.9750   61.7660   68.7280 C   0  0  0  0  0  0  0  0  0  0  0  0
   12.4710   64.1400   68.6960 C   0  0  0  0  0  0  0  0  0  0  0  0
   12.2770   62.8360   68.2120 C   0  0  0  0  0  0  0  0  0  0  0  0
   16.7520   64.1710   74.9560 N   0  0  0  0  0  0  0  0  0  0  0  0
   17.4600   63.5170   76.0540 C   0  0  0  0  0  0  0  0  0  0  0  0
   16.6930   63.4530   77.3640 C   0  0  0  0  0  0  0  0  0  0  0  0
   16.7220   62.4260   78.0570 O   0  0  0  0  0  0  0  0  0  0  0  0
   16.0180   64.5560   77.6990 N   0  0  0  0  0  0  0  0  0  0  0  0
   15.1810   64.6450   78.8950 C   0  0  2  0  0  0  0  0  0  0  0  0
   14.0050   63.6850   78.7750 C   0  0  0  0  0  0  0  0  0  0  0  0
   13.6560   63.0000   79.7350 O   0  0  0  0  0  0  0  0  0  0  0  0
   14.6810   66.1010   79.1340 C   0  0  2  0  0  0  0  0  0  0  0  0
   15.8470   66.9820   79.5760 C   0  0  0  0  0  0  0  0  0  0  0  0
   13.5770   66.1430   80.1900 C   0  0  0  0  0  0  0  0  0  0  0  0
   15.5760   68.4870   79.4750 C   0  0  0  0  0  0  0  0  0  0  0  0
   13.8790   60.8410   77.0310 N   0  0  0  0  0  0  0  0  0  0  0  0
   14.4350   59.4930   77.1980 C   0  0  2  0  0  0  0  0  0  0  0  0
   14.6550   59.1450   78.6850 C   0  0  0  0  0  0  0  0  0  0  0  0
   14.2930   58.0470   79.1550 O   0  0  0  0  0  0  0  0  0  0  0  0
   15.7230   59.3670   76.4030 C   0  0  0  0  0  0  0  0  0  0  0  0
   15.5250   59.4980   74.8710 C   0  0  0  0  0  0  0  0  0  0  0  0
   16.8510   59.5040   74.1160 C   0  0  0  0  0  0  0  0  0  0  0  0
   17.7160   60.3360   74.3630 O   0  0  0  0  0  0  0  0  0  0  0  0
   17.0020   58.5790   73.1830 N   0  0  0  0  0  0  0  0  0  0  0  0
   15.2280   60.0870   79.4230 N   0  0  0  0  0  0  0  0  0  0  0  0
   15.4450   59.8980   80.8520 C   0  0  2  0  0  0  0  0  0  0  0  0
   14.1410   59.7740   81.6150 C   0  0  0  0  0  0  0  0  0  0  0  0
   14.0120   58.9020   82.4620 O   0  0  0  0  0  0  0  0  0  0  0  0
   16.3070   61.0110   81.4380 C   0  0  0  0  0  0  0  0  0  0  0  0
   17.7950   60.9480   81.0590 C   0  0  0  0  0  0  0  0  0  0  0  0
   18.4240   62.3010   81.2080 C   0  0  0  0  0  0  0  0  0  0  0  0
   18.5540   59.9140   81.8890 C   0  0  0  0  0  0  0  0  0  0  0  0
   12.3860   56.4850   81.4930 N   0  0  0  0  0  0  0  0  0  0  0  0
   13.0400   55.4900   82.3410 C   0  0  2  0  0  0  0  0  0  0  0  0
   12.7600   55.7640   83.8190 C   0  0  0  0  0  0  0  0  0  0  0  0
   12.3400   54.8730   84.5560 O   0  0  0  0  0  0  0  0  0  0  0  0
   14.5450   55.5000   82.1010 C   0  0  0  0  0  0  0  0  0  0  0  0
   15.2650   54.2450   82.5550 C   0  0  0  0  0  0  0  0  0  0  0  0
   15.5370   53.3380   81.3700 C   0  0  0  0  0  0  0  0  0  0  0  0
   16.4560   53.9580   80.4160 N   0  0  0  0  0  0  0  0  0  0  0  0
   16.5630   53.6120   79.1350 C   0  0  0  0  0  0  0  0  0  0  0  0
   15.8050   52.6510   78.6250 N   0  0  0  0  0  0  0  0  0  0  0  0
   17.4300   54.2370   78.3600 N   0  0  0  0  0  0  0  0  0  0  0  0
   25.4310   74.7640   77.8420 N   0  0  0  0  0  0  0  0  0  0  0  0
   26.4930   73.8740   78.2790 C   0  0  2  0  0  0  0  0  0  0  0  0
   26.1480   73.3130   79.6510 C   0  0  0  0  0  0  0  0  0  0  0  0
   26.4370   72.1520   79.9500 O   0  0  0  0  0  0  0  0  0  0  0  0
   27.8620   74.5630   78.2620 C   0  0  0  0  0  0  0  0  0  0  0  0
   28.4400   74.6960   76.8470 C   0  0  0  0  0  0  0  0  0  0  0  0
   28.0880   73.5100   75.9240 C   0  0  0  0  0  0  0  0  0  0  0  0
   28.5020   72.3690   76.1650 O   0  0  0  0  0  0  0  0  0  0  0  0
   27.3270   73.7860   74.8630 N   0  0  0  0  0  0  0  0  0  0  0  0
   22.9500   72.8280   80.8290 N   0  0  0  0  0  0  0  0  0  0  0  0
   21.9070   71.8160   80.7300 C   0  0  2  0  0  0  0  0  0  0  0  0
   22.4500   70.5220   80.0910 C   0  0  0  0  0  0  0  0  0  0  0  0
   22.0400   69.4380   80.4680 O   0  0  0  0  0  0  0  0  0  0  0  0
   20.6400   72.2870   80.0020 C   0  0  2  0  0  0  0  0  0  0  0  0
   20.9420   72.6400   78.6350 O   0  0  0  0  0  0  0  0  0  0  0  0
   20.0180   73.4400   80.7340 C   0  0  0  0  0  0  0  0  0  0  0  0
   23.3690   70.6420   79.1360 N   0  0  0  0  0  0  0  0  0  0  0  0
   24.0090   69.4540   78.5760 C   0  0  2  0  0  0  0  0  0  0  0  0
   24.7420   68.6650   79.6730 C   0  0  0  0  0  0  0  0  0  0  0  0
   24.6170   67.4370   79.7460 O   0  0  0  0  0  0  0  0  0  0  0  0
   24.9170   69.7770   77.3810 C   0  0  0  0  0  0  0  0  0  0  0  0
   25.7640   68.5530   76.9860 C   0  0  0  0  0  0  0  0  0  0  0  0
   24.0700   70.2320   76.2100 C   0  0  0  0  0  0  0  0  0  0  0  0
   25.4680   69.3780   80.5350 N   0  0  0  0  0  0  0  0  0  0  0  0
   26.1820   68.7720   81.6480 C   0  0  2  0  0  0  0  0  0  0  0  0
   25.2380   68.0210   82.5730 C   0  0  0  0  0  0  0  0  0  0  0  0
   25.4920   66.8630   82.9170 O   0  0  0  0  0  0  0  0  0  0  0  0
   26.9030   69.8480   82.4490 C   0  0  0  0  0  0  0  0  0  0  0  0
   27.7850   69.3220   83.5340 C   0  0  0  0  0  0  0  0  0  0  0  0
   29.1190   69.0410   83.4370 C   0  0  0  0  0  0  0  0  0  0  0  0
   27.4150   69.0560   84.9000 C   0  0  0  0  0  0  0  0  0  0  0  0
   29.5990   68.6110   84.6500 N   0  0  0  0  0  0  0  0  0  0  0  0
   28.5780   68.6080   85.5650 C   0  0  0  0  0  0  0  0  0  0  0  0
   26.2120   69.1310   85.6160 C   0  0  0  0  0  0  0  0  0  0  0  0
   28.5770   68.2450   86.9090 C   0  0  0  0  0  0  0  0  0  0  0  0
   26.2120   68.7720   86.9610 C   0  0  0  0  0  0  0  0  0  0  0  0
   27.3880   68.3400   87.5920 C   0  0  0  0  0  0  0  0  0  0  0  0
   22.2150   66.7820   82.0390 N   0  0  0  0  0  0  0  0  0  0  0  0
   21.7160   65.5590   81.3870 C   0  0  2  0  0  0  0  0  0  0  0  0
   22.7580   64.4140   81.3310 C   0  0  0  0  0  0  0  0  0  0  0  0
   22.4280   63.2820   81.6690 O   0  0  0  0  0  0  0  0  0  0  0  0
   21.1260   65.8660   79.9830 C   0  0  2  0  0  0  0  0  0  0  0  0
   19.9060   66.7990   80.1260 C   0  0  0  0  0  0  0  0  0  0  0  0
   20.7000   64.5870   79.2830 C   0  0  0  0  0  0  0  0  0  0  0  0
   19.5770   67.5900   78.8770 C   0  0  0  0  0  0  0  0  0  0  0  0
   24.0000   64.6980   80.9120 N   0  0  0  0  0  0  0  0  0  0  0  0
   25.0520   63.6680   80.9110 C   0  0  2  0  0  0  0  0  0  0  0  0
   25.2540   63.0910   82.3210 C   0  0  0  0  0  0  0  0  0  0  0  0
   25.4180   61.8960   82.4960 O   0  0  0  0  0  0  0  0  0  0  0  0
   26.3890   64.1950   80.3750 C   0  0  0  0  0  0  0  0  0  0  0  0
   26.3090   64.9880   79.0830 C   0  0  0  0  0  0  0  0  0  0  0  0
   27.6330   65.0910   78.3550 C   0  0  0  0  0  0  0  0  0  0  0  0
   28.8330   65.0220   79.2720 C   0  0  0  0  0  0  0  0  0  0  0  0
   30.0360   64.6430   78.4990 N   0  0  0  0  0  0  0  0  0  0  0  0
   22.3370   60.7130   83.0330 N   0  0  0  0  0  0  0  0  0  0  0  0
   22.4630   59.4660   82.2880 C   0  0  2  0  0  0  0  0  0  0  0  0
   23.5640   58.5540   82.8480 C   0  0  0  0  0  0  0  0  0  0  0  0
   23.4040   57.3350   82.8620 O   0  0  0  0  0  0  0  0  0  0  0  0
   22.6870   59.7420   80.7920 C   0  0  0  0  0  0  0  0  0  0  0  0
   23.1450   58.5360   80.0210 C   0  0  0  0  0  0  0  0  0  0  0  0
   22.0930   57.4370   79.9470 C   0  0  0  0  0  0  0  0  0  0  0  0
   20.8860   57.6980   80.0450 O   0  0  0  0  0  0  0  0  0  0  0  0
   22.5540   56.1880   79.7790 N   0  0  0  0  0  0  0  0  0  0  0  0
   24.6580   59.1600   83.3170 N   0  0  0  0  0  0  0  0  0  0  0  0
   25.7950   58.4460   83.8900 C   0  0  2  0  0  0  0  0  0  0  0  0
   25.4240   57.6940   85.1770 C   0  0  0  0  0  0  0  0  0  0  0  0
   26.1080   56.7550   85.5790 O   0  0  0  0  0  0  0  0  0  0  0  0
   26.9460   59.4130   84.1630 C   0  0  0  0  0  0  0  0  0  0  0  0
  2  1  1  6
  3  2  1  0
  4  3  2  0
  5  2  1  0
  6  5  1  0
  7  6  1  0
  8  6  1  0
 10  9  1  1
 11 10  1  0
 12 11  2  0
 13 10  1  0
 14 13  1  0
 15 14  1  0
 16 14  1  0
 17 11  1  0
 18 17  1  6
 19 18  1  0
 20 19  2  0
 21 18  1  0
 22 21  1  0
 21 23  1  6
 24 19  1  0
 25 24  1  6
 26 25  1  0
 27 26  2  0
 28 25  1  0
 29 28  1  0
 30 28  1  0
 31 26  1  0
 32 31  1  0
 33 32  1  0
 34 33  2  0
 32 35  1  6
 36 35  1  0
 37 36  2  0
 38 36  1  0
 39 37  1  0
 40 39  1  0
 40 38  2  0
 41 38  1  0
 42 40  1  0
 43 41  2  0
 44 43  1  0
 44 42  2  0
 45 33  1  0
 46 45  1  0
 47 46  1  0
 48 47  2  0
 49 47  1  0
 50 49  1  6
 51 50  1  0
 52 51  2  0
 53 50  1  0
 54 53  1  0
 53 55  1  1
 56 54  1  0
 58 57  1  1
 59 58  1  0
 60 59  2  0
 61 58  1  0
 62 61  1  0
 63 62  1  0
 64 63  2  0
 65 63  1  0
 66 59  1  0
 67 66  1  0
 68 67  1  0
 69 68  2  0
 67 70  1  1
 71 70  1  0
 72 71  1  0
 73 71  1  0
 75 74  1  6
 76 75  1  0
 77 76  2  0
 78 75  1  0
 79 78  1  0
 80 79  1  0
 81 80  1  0
 82 81  1  0
 83 82  1  0
 84 82  2  0
 86 85  1  1
 87 86  1  0
 88 87  2  0
 89 86  1  0
 90 89  1  0
 91 90  1  0
 92 91  2  0
 93 91  1  0
 95 94  1  6
 96 95  1  0
 97 96  2  0
 98 95  1  0
 99 98  1  0
 98100  1  1
101 96  1  0
102101  1  1
103102  1  0
104103  2  0
105102  1  0
106105  1  0
107105  1  0
108103  1  0
109108  1  0
110109  1  0
111110  2  0
109112  1  1
113112  1  0
114113  2  0
115113  1  0
116114  1  0
117116  1  0
117115  2  0
118115  1  0
119117  1  0
120118  2  0
121120  1  0
121119  2  0
123122  1  6
124123  1  0
125124  2  0
126123  1  0
127126  1  0
126128  1  1
129127  1  0
130124  1  0
131130  1  0
132131  1  0
133132  2  0
131134  1  1
135134  1  0
136135  1  0
137136  1  0
138137  1  0
140139  1  1
141140  1  0
142141  2  0
143140  1  0
144143  1  0
145144  1  0
146145  2  0
147145  1  0
148141  1  0
149148  1  0
150149  1  0
151150  2  0
149152  1  1
M  END
$$$$
