
     RDKit          3D

178176  0  0  0  0  0  0  0  0999 V2000
   -3.7310  -49.6690  -27.6710 N   0  0  0  0  0  0  0  0  0  0  0  0
   -4.5320  -48.5090  -28.0610 C   0  0  2  0  0  0  0  0  0  0  0  0
   -4.1630  -48.0480  -29.4540 C   0  0  0  0  0  0  0  0  0  0  0  0
   -3.0530  -47.5780  -29.6920 O   0  0  0  0  0  0  0  0  0  0  0  0
   -4.3530  -47.3350  -27.0830 C   0  0  0  0  0  0  0  0  0  0  0  0
   -4.9610  -47.5620  -25.7080 C   0  0  0  0  0  0  0  0  0  0  0  0
   -3.9000  -47.8680  -24.6590 C   0  0  0  0  0  0  0  0  0  0  0  0
   -3.3510  -46.6570  -24.0530 N   0  0  0  0  0  0  0  0  0  0  0  0
   -3.9820  -45.9360  -23.1320 C   0  0  0  0  0  0  0  0  0  0  0  0
   -5.1890  -46.2980  -22.7190 N   0  0  0  0  0  0  0  0  0  0  0  0
   -3.4140  -44.8510  -22.6270 N   0  0  0  0  0  0  0  0  0  0  0  0
   -1.7920  -43.5210  -14.8580 N   0  0  0  0  0  0  0  0  0  0  0  0
   -2.2390  -42.2570  -15.4370 C   0  0  2  0  0  0  0  0  0  0  0  0
   -3.7050  -42.2800  -15.8210 C   0  0  0  0  0  0  0  0  0  0  0  0
   -4.0850  -41.8370  -16.9010 O   0  0  0  0  0  0  0  0  0  0  0  0
   -1.4100  -41.9040  -16.6720 C   0  0  0  0  0  0  0  0  0  0  0  0
    0.0790  -41.8090  -16.4130 C   0  0  0  0  0  0  0  0  0  0  0  0
    0.7950  -41.2730  -17.6350 C   0  0  0  0  0  0  0  0  0  0  0  0
    2.2830  -41.1630  -17.4170 C   0  0  0  0  0  0  0  0  0  0  0  0
    2.9530  -40.7700  -18.6810 N   0  0  0  0  0  0  0  0  0  0  0  0
   -4.5270  -42.8030  -14.9270 N   0  0  0  0  0  0  0  0  0  0  0  0
   -5.9670  -42.8510  -15.1610 C   0  0  2  0  0  0  0  0  0  0  0  0
   -6.6930  -41.7770  -14.3660 C   0  0  0  0  0  0  0  0  0  0  0  0
   -7.8130  -41.3930  -14.6990 O   0  0  0  0  0  0  0  0  0  0  0  0
   -6.5200  -44.2390  -14.8330 C   0  0  0  0  0  0  0  0  0  0  0  0
   -6.1220  -45.3130  -15.8430 C   0  0  0  0  0  0  0  0  0  0  0  0
   -6.6840  -45.0230  -17.2300 C   0  0  0  0  0  0  0  0  0  0  0  0
   -6.0890  -45.8810  -18.2510 N   0  0  0  0  0  0  0  0  0  0  0  0
   -6.7450  -46.8100  -18.9410 C   0  0  0  0  0  0  0  0  0  0  0  0
   -8.0410  -47.0110  -18.7450 N   0  0  0  0  0  0  0  0  0  0  0  0
   -6.1010  -47.5340  -19.8450 N   0  0  0  0  0  0  0  0  0  0  0  0
   -6.0300  -41.2900  -13.3240 N   0  0  0  0  0  0  0  0  0  0  0  0
   -6.5960  -40.2520  -12.4490 C   0  0  2  0  0  0  0  0  0  0  0  0
   -6.4140  -38.8840  -13.0760 C   0  0  0  0  0  0  0  0  0  0  0  0
   -5.2960  -38.4470  -13.3500 O   0  0  0  0  0  0  0  0  0  0  0  0
   -5.9600  -40.2490  -11.0470 C   0  0  0  0  0  0  0  0  0  0  0  0
   -6.3510  -38.9800  -10.2890 C   0  0  0  0  0  0  0  0  0  0  0  0
   -6.3630  -41.5050  -10.2790 C   0  0  0  0  0  0  0  0  0  0  0  0
   -7.5380  -38.2140  -13.2770 N   0  0  0  0  0  0  0  0  0  0  0  0
   -7.5880  -37.0070  -14.0930 C   0  0  2  0  0  0  0  0  0  0  0  0
   -7.6580  -35.7480  -13.2470 C   0  0  0  0  0  0  0  0  0  0  0  0
   -7.4850  -34.6350  -13.7450 O   0  0  0  0  0  0  0  0  0  0  0  0
   -8.8170  -37.0310  -15.0140 C   0  0  2  0  0  0  0  0  0  0  0  0
  -10.0060  -37.0140  -14.2140 O   0  0  0  0  0  0  0  0  0  0  0  0
   -8.8150  -38.2800  -15.8690 C   0  0  0  0  0  0  0  0  0  0  0  0
   -7.9160  -35.9360  -11.9620 N   0  0  0  0  0  0  0  0  0  0  0  0
   -8.0890  -34.8050  -11.0490 C   0  0  2  0  0  0  0  0  0  0  0  0
   -8.1610  -35.2010   -9.5780 C   0  0  0  0  0  0  0  0  0  0  0  0
   -8.7740  -36.2070   -9.2030 O   0  0  0  0  0  0  0  0  0  0  0  0
   -9.3470  -34.0160  -11.4460 C   0  0  0  0  0  0  0  0  0  0  0  0
   -9.7210  -32.8760  -10.5070 C   0  0  0  0  0  0  0  0  0  0  0  0
  -10.8760  -32.0590  -11.0650 C   0  0  0  0  0  0  0  0  0  0  0  0
  -11.3630  -31.0140  -10.0620 C   0  0  0  0  0  0  0  0  0  0  0  0
  -12.6200  -30.3340  -10.5060 N   0  0  0  0  0  0  0  0  0  0  0  0
   -7.5180  -34.3770   -8.7620 N   0  0  0  0  0  0  0  0  0  0  0  0
   -7.5400  -34.5320   -7.3070 C   0  0  2  0  0  0  0  0  0  0  0  0
   -7.7000  -33.2050   -6.5890 C   0  0  0  0  0  0  0  0  0  0  0  0
   -6.9180  -32.2800   -6.7930 O   0  0  0  0  0  0  0  0  0  0  0  0
   -6.2300  -35.1650   -6.8090 C   0  0  0  0  0  0  0  0  0  0  0  0
   -6.1890  -35.2160   -5.2930 C   0  0  0  0  0  0  0  0  0  0  0  0
   -6.0780  -36.5420   -7.3880 C   0  0  0  0  0  0  0  0  0  0  0  0
   -5.3860  -30.2390   -7.8250 N   0  0  0  0  0  0  0  0  0  0  0  0
   -4.4510  -30.6860   -8.8590 C   0  0  2  0  0  0  0  0  0  0  0  0
   -5.1760  -31.4370   -9.9720 C   0  0  0  0  0  0  0  0  0  0  0  0
   -5.9850  -32.3320   -9.7350 O   0  0  0  0  0  0  0  0  0  0  0  0
   -3.3810  -31.5570   -8.2130 C   0  0  0  0  0  0  0  0  0  0  0  0
   -2.1080  -31.7140   -9.0020 C   0  0  0  0  0  0  0  0  0  0  0  0
   -1.5030  -30.6280   -9.6230 C   0  0  0  0  0  0  0  0  0  0  0  0
   -1.4810  -32.9490   -9.0890 C   0  0  0  0  0  0  0  0  0  0  0  0
   -0.3230  -30.7780  -10.3320 C   0  0  0  0  0  0  0  0  0  0  0  0
   -0.3040  -33.1060   -9.7940 C   0  0  0  0  0  0  0  0  0  0  0  0
    0.2700  -32.0190  -10.4110 C   0  0  0  0  0  0  0  0  0  0  0  0
    1.4420  -32.1840  -11.1090 O   0  0  0  0  0  0  0  0  0  0  0  0
   -4.8580  -31.0520  -11.1940 N   0  0  0  0  0  0  0  0  0  0  0  0
   -5.6380  -31.4390  -12.3730 C   0  0  2  0  0  0  0  0  0  0  0  0
   -4.7600  -31.7340  -13.5870 C   0  0  0  0  0  0  0  0  0  0  0  0
   -3.6900  -31.1600  -13.7640 O   0  0  0  0  0  0  0  0  0  0  0  0
   -6.6400  -30.3160  -12.6870 C   0  0  0  0  0  0  0  0  0  0  0  0
   -7.4050  -30.5470  -13.9740 C   0  0  0  0  0  0  0  0  0  0  0  0
   -7.8750  -31.6840  -14.1920 O   0  0  0  0  0  0  0  0  0  0  0  0
   -7.5350  -29.5860  -14.7660 O   0  0  0  0  0  0  0  0  0  0  0  0
   -5.2290  -32.6450  -14.4210 N   0  0  0  0  0  0  0  0  0  0  0  0
   -4.4460  -33.0800  -15.5850 C   0  0  2  0  0  0  0  0  0  0  0  0
   -4.1990  -31.9430  -16.5740 C   0  0  0  0  0  0  0  0  0  0  0  0
   -3.2360  -31.9670  -17.3380 O   0  0  0  0  0  0  0  0  0  0  0  0
   -5.1160  -34.2600  -16.2990 C   0  0  0  0  0  0  0  0  0  0  0  0
   -6.3040  -33.8630  -16.9510 O   0  0  0  0  0  0  0  0  0  0  0  0
   -5.0810  -30.9560  -16.5490 N   0  0  0  0  0  0  0  0  0  0  0  0
   -5.0390  -29.8540  -17.5070 C   0  0  2  0  0  0  0  0  0  0  0  0
   -4.6860  -28.5300  -16.8480 C   0  0  0  0  0  0  0  0  0  0  0  0
   -5.2670  -27.4960  -17.1530 O   0  0  0  0  0  0  0  0  0  0  0  0
   -6.3810  -29.7290  -18.2320 C   0  0  0  0  0  0  0  0  0  0  0  0
   -6.8090  -31.0240  -18.8960 C   0  0  0  0  0  0  0  0  0  0  0  0
   -7.9220  -31.5020  -18.6890 O   0  0  0  0  0  0  0  0  0  0  0  0
   -5.9250  -31.5950  -19.7050 N   0  0  0  0  0  0  0  0  0  0  0  0
   -3.7220  -28.5820  -15.9410 N   0  0  0  0  0  0  0  0  0  0  0  0
   -3.2830  -27.3930  -15.1950 C   0  0  2  0  0  0  0  0  0  0  0  0
   -2.5360  -26.4120  -16.0620 C   0  0  0  0  0  0  0  0  0  0  0  0
   -1.6420  -26.7800  -16.8200 O   0  0  0  0  0  0  0  0  0  0  0  0
   -2.3770  -27.7790  -14.0220 C   0  0  0  0  0  0  0  0  0  0  0  0
   -3.0830  -28.5130  -12.9070 C   0  0  0  0  0  0  0  0  0  0  0  0
   -3.5300  -27.4950  -11.4950 S   0  0  0  0  0  0  0  0  0  0  0  0
   -4.3790  -26.1300  -12.2950 C   0  0  0  0  0  0  0  0  0  0  0  0
   -2.9230  -25.1520  -15.9340 N   0  0  0  0  0  0  0  0  0  0  0  0
   -2.2010  -24.0520  -16.5570 C   0  0  2  0  0  0  0  0  0  0  0  0
   -1.4540  -23.3190  -15.4630 C   0  0  0  0  0  0  0  0  0  0  0  0
   -1.3720  -22.0960  -15.4330 O   0  0  0  0  0  0  0  0  0  0  0  0
   -3.1360  -23.1160  -17.3170 C   0  0  0  0  0  0  0  0  0  0  0  0
   -3.4840  -23.6110  -18.7130 C   0  0  0  0  0  0  0  0  0  0  0  0
   -3.8530  -22.4450  -19.6290 C   0  0  0  0  0  0  0  0  0  0  0  0
   -4.3010  -22.8870  -20.9490 N   0  0  0  0  0  0  0  0  0  0  0  0
   -4.6980  -22.0700  -21.9200 C   0  0  0  0  0  0  0  0  0  0  0  0
   -4.7040  -20.7560  -21.7310 N   0  0  0  0  0  0  0  0  0  0  0  0
   -5.0890  -22.5670  -23.0840 N   0  0  0  0  0  0  0  0  0  0  0  0
   -0.9320  -24.1150  -14.5470 N   0  0  0  0  0  0  0  0  0  0  0  0
   -0.0860  -23.6290  -13.4620 C   0  0  2  0  0  0  0  0  0  0  0  0
    1.1750  -24.4760  -13.3300 C   0  0  0  0  0  0  0  0  0  0  0  0
    1.2920  -25.5590  -13.9100 O   0  0  0  0  0  0  0  0  0  0  0  0
   -0.8630  -23.6330  -12.1450 C   0  0  0  0  0  0  0  0  0  0  0  0
    0.0020  -23.4330  -11.0420 O   0  0  0  0  0  0  0  0  0  0  0  0
    2.1160  -23.9520  -12.5600 N   0  0  0  0  0  0  0  0  0  0  0  0
    3.4080  -24.5980  -12.3580 C   0  0  0  0  0  0  0  0  0  0  0  0
    3.3830  -25.6090  -11.2390 C   0  0  0  0  0  0  0  0  0  0  0  0
    4.3570  -26.3160  -10.9950 O   0  0  0  0  0  0  0  0  0  0  0  0
    2.2510  -25.6690  -10.5590 N   0  0  0  0  0  0  0  0  0  0  0  0
    2.0970  -26.5410   -9.3930 C   0  0  2  0  0  0  0  0  0  0  0  0
    0.6360  -26.6940   -9.0150 C   0  0  0  0  0  0  0  0  0  0  0  0
   -0.2360  -26.0080   -9.5490 O   0  0  0  0  0  0  0  0  0  0  0  0
    2.8800  -25.9660   -8.2090 C   0  0  0  0  0  0  0  0  0  0  0  0
    3.2830  -26.9690   -7.1460 C   0  0  0  0  0  0  0  0  0  0  0  0
    4.4250  -26.4110   -6.3020 C   0  0  0  0  0  0  0  0  0  0  0  0
    4.5580  -27.1230   -4.9670 C   0  0  0  0  0  0  0  0  0  0  0  0
    5.5040  -26.4070   -4.0660 N   0  0  0  0  0  0  0  0  0  0  0  0
    0.3860  -27.6090   -8.0920 N   0  0  0  0  0  0  0  0  0  0  0  0
   -0.9560  -27.7660   -7.5070 C   0  0  2  0  0  0  0  0  0  0  0  0
   -1.4050  -26.4650   -6.8740 C   0  0  0  0  0  0  0  0  0  0  0  0
   -0.5910  -25.6370   -6.4600 O   0  0  0  0  0  0  0  0  0  0  0  0
   -1.0080  -28.8950   -6.4580 C   0  0  0  0  0  0  0  0  0  0  0  0
   -0.0140  -28.7360   -5.3360 C   0  0  0  0  0  0  0  0  0  0  0  0
   -0.2200  -27.8070   -4.3320 C   0  0  0  0  0  0  0  0  0  0  0  0
    1.1260  -29.5200   -5.2910 C   0  0  0  0  0  0  0  0  0  0  0  0
    0.6960  -27.6570   -3.3120 C   0  0  0  0  0  0  0  0  0  0  0  0
    2.0420  -29.3780   -4.2690 C   0  0  0  0  0  0  0  0  0  0  0  0
    1.8280  -28.4470   -3.2800 C   0  0  0  0  0  0  0  0  0  0  0  0
    2.0150  -39.8450   -5.9930 N   0  0  0  0  0  0  0  0  0  0  0  0
    2.3450  -39.6140   -7.3950 C   0  0  2  0  0  0  0  0  0  0  0  0
    1.0720  -39.7460   -8.1980 C   0  0  0  0  0  0  0  0  0  0  0  0
    0.6030  -40.8460   -8.4800 O   0  0  0  0  0  0  0  0  0  0  0  0
    3.3820  -40.6160   -7.8830 C   0  0  0  0  0  0  0  0  0  0  0  0
    3.8510  -40.3310   -9.2920 C   0  0  0  0  0  0  0  0  0  0  0  0
    3.1420  -39.6010  -10.0180 O   0  0  0  0  0  0  0  0  0  0  0  0
    4.9340  -40.8390   -9.6750 O   0  0  0  0  0  0  0  0  0  0  0  0
    0.5170  -38.6020   -8.5620 N   0  0  0  0  0  0  0  0  0  0  0  0
   -0.8070  -38.5580   -9.1770 C   0  0  2  0  0  0  0  0  0  0  0  0
   -0.8200  -39.3720  -10.4640 C   0  0  0  0  0  0  0  0  0  0  0  0
   -1.8670  -39.8530  -10.8990 O   0  0  0  0  0  0  0  0  0  0  0  0
   -1.2830  -37.1120   -9.4640 C   0  0  2  0  0  0  0  0  0  0  0  0
   -2.7480  -36.9470   -9.0480 C   0  0  0  0  0  0  0  0  0  0  0  0
   -1.0620  -36.7540  -10.9170 C   0  0  0  0  0  0  0  0  0  0  0  0
   -3.6420  -38.1300   -9.3810 C   0  0  0  0  0  0  0  0  0  0  0  0
    0.3620  -39.5550  -11.0440 N   0  0  0  0  0  0  0  0  0  0  0  0
    0.4990  -40.2760  -12.3240 C   0  0  2  0  0  0  0  0  0  0  0  0
    0.2440  -41.7550  -12.1000 C   0  0  0  0  0  0  0  0  0  0  0  0
   -0.1740  -42.4870  -13.0080 O   0  0  0  0  0  0  0  0  0  0  0  0
    1.8870  -40.0820  -12.9390 C   0  0  0  0  0  0  0  0  0  0  0  0
    2.8630  -40.8450  -12.2590 O   0  0  0  0  0  0  0  0  0  0  0  0
  -10.7520  -38.1130   -9.0640 N   0  0  0  0  0  0  0  0  0  0  0  0
  -11.5230  -38.3220  -10.2930 C   0  0  2  0  0  0  0  0  0  0  0  0
  -10.8210  -39.1470  -11.3490 C   0  0  0  0  0  0  0  0  0  0  0  0
   -9.6390  -38.9690  -11.6350 O   0  0  0  0  0  0  0  0  0  0  0  0
  -11.8910  -36.9760  -10.9160 C   0  0  0  0  0  0  0  0  0  0  0  0
  -12.7680  -36.1020  -10.0550 C   0  0  0  0  0  0  0  0  0  0  0  0
  -12.2290  -35.3540   -9.0180 C   0  0  0  0  0  0  0  0  0  0  0  0
  -14.1310  -36.0110  -10.2920 C   0  0  0  0  0  0  0  0  0  0  0  0
  -13.0260  -34.5510   -8.2310 C   0  0  0  0  0  0  0  0  0  0  0  0
  -14.9360  -35.2120   -9.5130 C   0  0  0  0  0  0  0  0  0  0  0  0
  -14.3790  -34.4800   -8.4850 C   0  0  0  0  0  0  0  0  0  0  0  0
  -15.1840  -33.6770   -7.7050 O   0  0  0  0  0  0  0  0  0  0  0  0
  2  1  1  1
  3  2  1  0
  4  3  2  0
  5  2  1  0
  6  5  1  0
  7  6  1  0
  8  7  1  0
  9  8  1  0
 10  9  1  0
 11  9  2  0
 13 12  1  6
 14 13  1  0
 15 14  2  0
 16 13  1  0
 17 16  1  0
 18 17  1  0
 19 18  1  0
 20 19  1  0
 21 14  1  0
 22 21  1  0
 23 22  1  0
 24 23  2  0
 22 25  1  1
 26 25  1  0
 27 26  1  0
 28 27  1  0
 29 28  1  0
 30 29  1  0
 31 29  2  0
 32 23  1  0
 33 32  1  6
 34 33  1  0
 35 34  2  0
 36 33  1  0
 37 36  1  0
 38 36  1  0
 39 34  1  0
 40 39  1  1
 41 40  1  0
 42 41  2  0
 43 40  1  0
 44 43  1  0
 43 45  1  1
 46 41  1  0
 47 46  1  0
 48 47  1  0
 49 48  2  0
 47 50  1  6
 51 50  1  0
 52 51  1  0
 53 52  1  0
 54 53  1  0
 55 48  1  0
 56 55  1  6
 57 56  1  0
 58 57  2  0
 59 56  1  0
 60 59  1  0
 61 59  1  0
 63 62  1  1
 64 63  1  0
 65 64  2  0
 66 63  1  0
 67 66  1  0
 68 67  2  0
 69 67  1  0
 70 68  1  0
 71 69  2  0
 72 71  1  0
 72 70  2  0
 73 72  1  0
 74 64  1  0
 75 74  1  0
 76 75  1  0
 77 76  2  0
 75 78  1  6
 79 78  1  0
 80 79  2  0
 81 79  1  0
 82 76  1  0
 83 82  1  0
 84 83  1  0
 85 84  2  0
 83 86  1  6
 87 86  1  0
 88 84  1  0
 89 88  1  0
 90 89  1  0
 91 90  2  0
 89 92  1  1
 93 92  1  0
 94 93  2  0
 95 93  1  0
 96 90  1  0
 97 96  1  0
 98 97  1  0
 99 98  2  0
 97100  1  1
101100  1  0
102101  1  0
103102  1  0
104 98  1  0
105104  1  0
106105  1  0
107106  2  0
105108  1  1
109108  1  0
110109  1  0
111110  1  0
112111  1  0
113112  1  0
114112  2  0
115106  1  0
116115  1  0
117116  1  0
118117  2  0
116119  1  1
120119  1  0
121117  1  0
122121  1  0
123122  1  0
124123  2  0
125123  1  0
126125  1  0
127126  1  0
128127  2  0
126129  1  1
130129  1  0
131130  1  0
132131  1  0
133132  1  0
134127  1  0
135134  1  0
136135  1  0
137136  2  0
135138  1  1
139138  1  0
140139  2  0
141139  1  0
142140  1  0
143141  2  0
144143  1  0
144142  2  0
146145  1  1
147146  1  0
148147  2  0
149146  1  0
150149  1  0
151150  2  0
152150  1  0
153147  1  0
154153  1  6
155154  1  0
156155  2  0
157154  1  0
158157  1  0
157159  1  6
160158  1  0
161155  1  0
162161  1  0
163162  1  0
164163  2  0
162165  1  1
166165  1  0
168167  1  1
169168  1  0
170169  2  0
171168  1  0
172171  1  0
173172  2  0
174172  1  0
175173  1  0
176174  2  0
177176  1  0
177175  2  0
178177  1  0
M  END
$$$$
