
     RDKit          3D

121118  0  0  0  0  0  0  0  0999 V2000
   90.1310    3.9840  -25.4180 N   0  0  0  0  0  0  0  0  0  0  0  0
   88.8870    3.4520  -25.9760 C   0  0  2  0  0  0  0  0  0  0  0  0
   88.0050    4.5230  -26.6130 C   0  0  0  0  0  0  0  0  0  0  0  0
   87.1430    4.2010  -27.4330 O   0  0  0  0  0  0  0  0  0  0  0  0
   88.1840    2.8620  -24.7540 C   0  0  0  0  0  0  0  0  0  0  0  0
   88.6810    3.6670  -23.6120 C   0  0  0  0  0  0  0  0  0  0  0  0
   90.0970    4.0460  -23.9450 C   0  0  0  0  0  0  0  0  0  0  0  0
   88.2200    5.7800  -26.2340 N   0  0  0  0  0  0  0  0  0  0  0  0
   87.3630    6.8670  -26.6780 C   0  0  2  0  0  0  0  0  0  0  0  0
   88.1240    8.1760  -26.8250 C   0  0  0  0  0  0  0  0  0  0  0  0
   89.3530    8.2090  -26.7250 O   0  0  0  0  0  0  0  0  0  0  0  0
   86.2010    7.0480  -25.7000 C   0  0  0  0  0  0  0  0  0  0  0  0
   86.6570    7.4470  -24.3010 C   0  0  0  0  0  0  0  0  0  0  0  0
   87.8660    7.7050  -24.0920 O   0  0  0  0  0  0  0  0  0  0  0  0
   85.7940    7.5040  -23.3990 O   0  0  0  0  0  0  0  0  0  0  0  0
   87.7460   10.7450  -24.7690 N   0  0  0  0  0  0  0  0  0  0  0  0
   87.4330   11.3930  -23.5050 C   0  0  2  0  0  0  0  0  0  0  0  0
   88.3710   12.5350  -23.1300 C   0  0  0  0  0  0  0  0  0  0  0  0
   88.0490   13.3200  -22.2370 O   0  0  0  0  0  0  0  0  0  0  0  0
   87.3470   10.3760  -22.3650 C   0  0  0  0  0  0  0  0  0  0  0  0
   86.0000    9.9990  -22.1400 O   0  0  0  0  0  0  0  0  0  0  0  0
   89.5180   12.6480  -23.7980 N   0  0  0  0  0  0  0  0  0  0  0  0
   90.4030   13.7750  -23.5050 C   0  0  2  0  0  0  0  0  0  0  0  0
   89.7510   15.0720  -23.9680 C   0  0  0  0  0  0  0  0  0  0  0  0
   90.0650   16.1430  -23.4510 O   0  0  0  0  0  0  0  0  0  0  0  0
   91.8440   13.6220  -24.0700 C   0  0  0  0  0  0  0  0  0  0  0  0
   92.5140   12.3900  -23.4990 C   0  0  0  0  0  0  0  0  0  0  0  0
   91.8550   13.6040  -25.5880 C   0  0  0  0  0  0  0  0  0  0  0  0
   86.5980   15.5160  -23.5460 N   0  0  0  0  0  0  0  0  0  0  0  0
   85.4420   15.4810  -22.6530 C   0  0  2  0  0  0  0  0  0  0  0  0
   84.6970   16.8150  -22.5010 C   0  0  0  0  0  0  0  0  0  0  0  0
   83.4750   16.8300  -22.3860 O   0  0  0  0  0  0  0  0  0  0  0  0
   85.9530   15.0670  -21.2810 C   0  0  0  0  0  0  0  0  0  0  0  0
   85.0690   14.1650  -20.4930 C   0  0  0  0  0  0  0  0  0  0  0  0
   85.8250   13.5140  -19.3550 C   0  0  0  0  0  0  0  0  0  0  0  0
   86.6700   14.1370  -18.7090 O   0  0  0  0  0  0  0  0  0  0  0  0
   85.5330   12.2460  -19.1120 N   0  0  0  0  0  0  0  0  0  0  0  0
   83.7760    3.9180  -28.5320 N   0  0  0  0  0  0  0  0  0  0  0  0
   82.7420    4.9270  -28.3660 C   0  0  2  0  0  0  0  0  0  0  0  0
   83.3530    6.3200  -28.4700 C   0  0  0  0  0  0  0  0  0  0  0  0
   84.5780    6.4460  -28.5400 O   0  0  0  0  0  0  0  0  0  0  0  0
   81.9630    4.7180  -27.0590 C   0  0  0  0  0  0  0  0  0  0  0  0
   82.7570    4.8180  -25.7890 C   0  0  0  0  0  0  0  0  0  0  0  0
   82.9820    5.9440  -25.0560 C   0  0  0  0  0  0  0  0  0  0  0  0
   83.3880    3.7460  -25.0810 C   0  0  0  0  0  0  0  0  0  0  0  0
   83.7300    5.6460  -23.9440 N   0  0  0  0  0  0  0  0  0  0  0  0
   83.9940    4.3030  -23.9350 C   0  0  0  0  0  0  0  0  0  0  0  0
   83.5090    2.3720  -25.3080 C   0  0  0  0  0  0  0  0  0  0  0  0
   84.7110    3.5360  -23.0170 C   0  0  0  0  0  0  0  0  0  0  0  0
   84.2240    1.6070  -24.3930 C   0  0  0  0  0  0  0  0  0  0  0  0
   84.8150    2.1940  -23.2630 C   0  0  0  0  0  0  0  0  0  0  0  0
   82.4690    9.6210  -26.5300 N   0  0  0  0  0  0  0  0  0  0  0  0
   82.7680   10.2470  -25.2490 C   0  0  0  0  0  0  0  0  0  0  0  0
   82.9400   11.7540  -25.2710 C   0  0  0  0  0  0  0  0  0  0  0  0
   83.3590   12.3380  -24.2670 O   0  0  0  0  0  0  0  0  0  0  0  0
   81.2350   14.1980  -24.5500 N   0  0  0  0  0  0  0  0  0  0  0  0
   79.9770   14.4230  -23.8430 C   0  0  2  0  0  0  0  0  0  0  0  0
   79.6060   15.8680  -23.4900 C   0  0  0  0  0  0  0  0  0  0  0  0
   78.5440   16.1050  -22.9100 O   0  0  0  0  0  0  0  0  0  0  0  0
   79.8900   13.5200  -22.6090 C   0  0  0  0  0  0  0  0  0  0  0  0
   80.8200   13.8500  -21.4580 C   0  0  0  0  0  0  0  0  0  0  0  0
   80.4280   12.9780  -20.2820 C   0  0  0  0  0  0  0  0  0  0  0  0
   81.1970   13.2310  -19.0640 N   0  0  0  0  0  0  0  0  0  0  0  0
   82.2380   12.5050  -18.6600 C   0  0  0  0  0  0  0  0  0  0  0  0
   82.6730   11.4800  -19.3870 N   0  0  0  0  0  0  0  0  0  0  0  0
   82.8530   12.8130  -17.5250 N   0  0  0  0  0  0  0  0  0  0  0  0
   74.2940   -4.3200  -23.8460 N   0  0  0  0  0  0  0  0  0  0  0  0
   74.8960   -3.4270  -22.8620 C   0  0  2  0  0  0  0  0  0  0  0  0
   76.2990   -3.0740  -23.3310 C   0  0  0  0  0  0  0  0  0  0  0  0
   76.9280   -3.8430  -24.0550 O   0  0  0  0  0  0  0  0  0  0  0  0
   74.9250   -4.0630  -21.4630 C   0  0  0  0  0  0  0  0  0  0  0  0
   75.7580   -5.3370  -21.3360 C   0  0  0  0  0  0  0  0  0  0  0  0
   76.0400   -5.7240  -19.8890 C   0  0  0  0  0  0  0  0  0  0  0  0
   76.7560   -5.0200  -19.1690 O   0  0  0  0  0  0  0  0  0  0  0  0
   75.4880   -6.8610  -19.4630 O   0  0  0  0  0  0  0  0  0  0  0  0
   76.7780   -1.9030  -22.9350 N   0  0  0  0  0  0  0  0  0  0  0  0
   78.0870   -1.4450  -23.3660 C   0  0  0  0  0  0  0  0  0  0  0  0
   78.1600   -1.1540  -24.8540 C   0  0  0  0  0  0  0  0  0  0  0  0
   79.2120   -0.7550  -25.3600 O   0  0  0  0  0  0  0  0  0  0  0  0
   77.0450   -1.3480  -25.5570 N   0  0  0  0  0  0  0  0  0  0  0  0
   76.9850   -1.0710  -26.9930 C   0  0  2  0  0  0  0  0  0  0  0  0
   75.8680   -0.1050  -27.4100 C   0  0  0  0  0  0  0  0  0  0  0  0
   75.9330    0.4780  -28.4910 O   0  0  0  0  0  0  0  0  0  0  0  0
   76.9280   -2.3730  -27.8060 C   0  0  0  0  0  0  0  0  0  0  0  0
   78.1800   -3.2600  -27.7810 C   0  0  0  0  0  0  0  0  0  0  0  0
   78.0560   -4.3400  -28.8180 C   0  0  0  0  0  0  0  0  0  0  0  0
   79.4530   -2.4680  -28.0280 C   0  0  0  0  0  0  0  0  0  0  0  0
   78.7540    4.2970  -23.4460 N   0  0  0  0  0  0  0  0  0  0  0  0
   78.0090    3.3900  -22.5800 C   0  0  2  0  0  0  0  0  0  0  0  0
   77.8700    3.8930  -21.1490 C   0  0  0  0  0  0  0  0  0  0  0  0
   78.7280    4.6250  -20.6570 O   0  0  0  0  0  0  0  0  0  0  0  0
   78.8610    2.1240  -22.5990 C   0  0  0  0  0  0  0  0  0  0  0  0
   80.2430    2.5960  -22.8480 C   0  0  0  0  0  0  0  0  0  0  0  0
   80.1650    3.8970  -23.5870 C   0  0  0  0  0  0  0  0  0  0  0  0
   76.7910    3.4930  -20.4870 N   0  0  0  0  0  0  0  0  0  0  0  0
   76.6030    3.8050  -19.0730 C   0  0  0  0  0  0  0  0  0  0  0  0
   75.9380    5.1410  -18.8010 C   0  0  0  0  0  0  0  0  0  0  0  0
   75.8980    6.0040  -19.6790 O   0  0  0  0  0  0  0  0  0  0  0  0
   75.4160    5.3190  -17.5720 N   0  0  0  0  0  0  0  0  0  0  0  0
   74.6830    6.5040  -17.1450 C   0  0  2  0  0  0  0  0  0  0  0  0
   75.5460    7.7460  -16.9000 C   0  0  0  0  0  0  0  0  0  0  0  0
   75.0940    8.6730  -16.2250 O   0  0  0  0  0  0  0  0  0  0  0  0
   74.0440    6.0490  -15.8360 C   0  0  0  0  0  0  0  0  0  0  0  0
   74.9820    5.0670  -15.2990 C   0  0  0  0  0  0  0  0  0  0  0  0
   75.4950    4.3240  -16.4890 C   0  0  0  0  0  0  0  0  0  0  0  0
   76.7630    7.7640  -17.4360 N   0  0  0  0  0  0  0  0  0  0  0  0
   77.6290    8.9430  -17.3560 C   0  0  2  0  0  0  0  0  0  0  0  0
   77.9250    9.5030  -18.7420 C   0  0  0  0  0  0  0  0  0  0  0  0
   78.8000   10.3600  -18.8950 O   0  0  0  0  0  0  0  0  0  0  0  0
   78.9750    8.6370  -16.6510 C   0  0  2  0  0  0  0  0  0  0  0  0
   79.5420    7.4330  -17.1850 O   0  0  0  0  0  0  0  0  0  0  0  0
   78.7830    8.4820  -15.1540 C   0  0  0  0  0  0  0  0  0  0  0  0
   77.1990    9.0160  -19.7470 N   0  0  0  0  0  0  0  0  0  0  0  0
   77.4380    9.4100  -21.1370 C   0  0  2  0  0  0  0  0  0  0  0  0
   76.1990    9.9510  -21.8440 C   0  0  0  0  0  0  0  0  0  0  0  0
   76.2200   10.1650  -23.0540 O   0  0  0  0  0  0  0  0  0  0  0  0
   78.0070    8.2400  -21.9350 C   0  0  0  0  0  0  0  0  0  0  0  0
   79.3960    7.8050  -21.5100 C   0  0  0  0  0  0  0  0  0  0  0  0
   80.4600    8.8140  -21.8690 C   0  0  0  0  0  0  0  0  0  0  0  0
   80.5300    9.2880  -23.0020 O   0  0  0  0  0  0  0  0  0  0  0  0
   81.3000    9.1480  -20.9030 N   0  0  0  0  0  0  0  0  0  0  0  0
  2  1  1  0
  2  3  1  1
  4  3  2  0
  5  2  1  0
  6  5  1  0
  7  6  1  0
  7  1  1  0
  8  3  1  0
  9  8  1  0
 10  9  1  0
 11 10  2  0
  9 12  1  1
 13 12  1  0
 14 13  2  0
 15 13  1  0
 17 16  1  6
 18 17  1  0
 19 18  2  0
 20 17  1  0
 21 20  1  0
 22 18  1  0
 23 22  1  6
 24 23  1  0
 25 24  2  0
 26 23  1  0
 27 26  1  0
 28 26  1  0
 30 29  1  6
 31 30  1  0
 32 31  2  0
 33 30  1  0
 34 33  1  0
 35 34  1  0
 36 35  2  0
 37 35  1  0
 39 38  1  1
 40 39  1  0
 41 40  2  0
 42 39  1  0
 43 42  1  0
 44 43  2  0
 45 43  1  0
 46 44  1  0
 47 45  2  0
 47 46  1  0
 48 45  1  0
 49 47  1  0
 50 48  2  0
 51 50  1  0
 51 49  2  0
 53 52  1  0
 54 53  1  0
 55 54  2  0
 57 56  1  1
 58 57  1  0
 59 58  2  0
 60 57  1  0
 61 60  1  0
 62 61  1  0
 63 62  1  0
 64 63  1  0
 65 64  1  0
 66 64  2  0
 68 67  1  6
 69 68  1  0
 70 69  2  0
 71 68  1  0
 72 71  1  0
 73 72  1  0
 74 73  2  0
 75 73  1  0
 76 69  1  0
 77 76  1  0
 78 77  1  0
 79 78  2  0
 80 78  1  0
 81 80  1  0
 82 81  1  0
 83 82  2  0
 81 84  1  6
 85 84  1  0
 86 85  1  0
 87 85  1  0
 89 88  1  0
 89 90  1  1
 91 90  2  0
 92 89  1  0
 93 92  1  0
 94 93  1  0
 94 88  1  0
 95 90  1  0
 96 95  1  0
 97 96  1  0
 98 97  2  0
 99 97  1  0
100 99  1  0
100101  1  1
102101  2  0
103100  1  0
104103  1  0
105 99  1  0
105104  1  0
106101  1  0
107106  1  6
108107  1  0
109108  2  0
110107  1  0
111110  1  0
110112  1  1
113108  1  0
114113  1  0
115114  1  0
116115  2  0
114117  1  6
118117  1  0
119118  1  0
120119  2  0
121119  1  0
M  END
$$$$
