
     RDKit          3D

144142  0  0  0  0  0  0  0  0999 V2000
  103.1470   10.2440  -26.7980 N   0  0  0  0  0  0  0  0  0  0  0  0
  102.5910    9.2260  -25.9010 C   0  0  2  0  0  0  0  0  0  0  0  0
  101.1430    9.5440  -25.5320 C   0  0  0  0  0  0  0  0  0  0  0  0
  100.7630   10.7130  -25.5050 O   0  0  0  0  0  0  0  0  0  0  0  0
  103.4360    9.1130  -24.6300 C   0  0  0  0  0  0  0  0  0  0  0  0
  104.8800    8.6790  -24.8500 C   0  0  0  0  0  0  0  0  0  0  0  0
  105.0060    7.3200  -25.5200 C   0  0  0  0  0  0  0  0  0  0  0  0
  104.1360    6.4530  -25.3890 O   0  0  0  0  0  0  0  0  0  0  0  0
  106.1030    7.1290  -26.2440 N   0  0  0  0  0  0  0  0  0  0  0  0
  100.3300    8.5090  -25.2320 N   0  0  0  0  0  0  0  0  0  0  0  0
   98.8960    8.7310  -25.0210 C   0  0  2  0  0  0  0  0  0  0  0  0
   98.5800    9.6820  -23.8750 C   0  0  0  0  0  0  0  0  0  0  0  0
   97.7480   10.5670  -24.0410 O   0  0  0  0  0  0  0  0  0  0  0  0
   98.3570    7.3310  -24.7180 C   0  0  0  0  0  0  0  0  0  0  0  0
   99.3720    6.4030  -25.2800 C   0  0  0  0  0  0  0  0  0  0  0  0
  100.6820    7.0870  -25.0780 C   0  0  0  0  0  0  0  0  0  0  0  0
   99.2490    9.5230  -22.7380 N   0  0  0  0  0  0  0  0  0  0  0  0
   98.9600   10.3490  -21.5640 C   0  0  2  0  0  0  0  0  0  0  0  0
   99.3410   11.8180  -21.7360 C   0  0  0  0  0  0  0  0  0  0  0  0
   99.0260   12.6420  -20.8800 O   0  0  0  0  0  0  0  0  0  0  0  0
   99.6310    9.7690  -20.3190 C   0  0  0  0  0  0  0  0  0  0  0  0
  101.1460    9.9350  -20.2710 C   0  0  0  0  0  0  0  0  0  0  0  0
  101.8460    8.6170  -20.0280 C   0  0  0  0  0  0  0  0  0  0  0  0
  102.3580    8.4000  -18.9040 O   0  0  0  0  0  0  0  0  0  0  0  0
  101.8610    7.7880  -20.9680 O   0  0  0  0  0  0  0  0  0  0  0  0
   98.1070   13.5440  -24.1090 N   0  0  0  0  0  0  0  0  0  0  0  0
   96.8690   14.1410  -24.6140 C   0  0  2  0  0  0  0  0  0  0  0  0
   96.0420   14.7560  -23.4870 C   0  0  0  0  0  0  0  0  0  0  0  0
   95.0200   15.4050  -23.7420 O   0  0  0  0  0  0  0  0  0  0  0  0
   96.0390   13.1160  -25.3920 C   0  0  0  0  0  0  0  0  0  0  0  0
   96.6580   12.5050  -26.6510 C   0  0  0  0  0  0  0  0  0  0  0  0
   95.8090   11.3610  -27.1300 C   0  0  0  0  0  0  0  0  0  0  0  0
   96.8150   13.5180  -27.7640 C   0  0  0  0  0  0  0  0  0  0  0  0
   96.4960   14.5500  -22.2480 N   0  0  0  0  0  0  0  0  0  0  0  0
   95.9120   15.1800  -21.0640 C   0  0  2  0  0  0  0  0  0  0  0  0
   95.7940   16.6980  -21.1810 C   0  0  0  0  0  0  0  0  0  0  0  0
   94.8920   17.2890  -20.5890 O   0  0  0  0  0  0  0  0  0  0  0  0
   96.7380   14.8580  -19.8210 C   0  0  0  0  0  0  0  0  0  0  0  0
   96.4090   13.5260  -19.1790 C   0  0  0  0  0  0  0  0  0  0  0  0
   96.8410   13.4470  -17.7200 C   0  0  0  0  0  0  0  0  0  0  0  0
   97.0880   14.4700  -17.0770 O   0  0  0  0  0  0  0  0  0  0  0  0
   96.9250   12.2290  -17.1890 N   0  0  0  0  0  0  0  0  0  0  0  0
   92.4210   18.3550  -21.7410 N   0  0  0  0  0  0  0  0  0  0  0  0
   91.3470   18.1480  -20.7730 C   0  0  2  0  0  0  0  0  0  0  0  0
   90.5970   19.4350  -20.4190 C   0  0  0  0  0  0  0  0  0  0  0  0
   89.3950   19.3980  -20.1740 O   0  0  0  0  0  0  0  0  0  0  0  0
   91.8930   17.4930  -19.5090 C   0  0  0  0  0  0  0  0  0  0  0  0
   90.8520   16.7180  -18.7090 C   0  0  0  0  0  0  0  0  0  0  0  0
   91.3870   16.2060  -17.3770 C   0  0  0  0  0  0  0  0  0  0  0  0
   90.6290   15.4970  -16.6740 O   0  0  0  0  0  0  0  0  0  0  0  0
   92.5560   16.5130  -17.0340 O   0  0  0  0  0  0  0  0  0  0  0  0
   95.5110    2.3940  -26.9050 N   0  0  0  0  0  0  0  0  0  0  0  0
   95.1840    2.2600  -25.4870 C   0  0  2  0  0  0  0  0  0  0  0  0
   93.8550    2.8950  -25.1700 C   0  0  0  0  0  0  0  0  0  0  0  0
   93.1290    2.4210  -24.3000 O   0  0  0  0  0  0  0  0  0  0  0  0
   96.2290    2.9570  -24.6210 C   0  0  0  0  0  0  0  0  0  0  0  0
   97.4010    2.1890  -24.5060 O   0  0  0  0  0  0  0  0  0  0  0  0
   93.5560    3.9900  -25.8600 N   0  0  0  0  0  0  0  0  0  0  0  0
   92.4230    4.8300  -25.5040 C   0  0  2  0  0  0  0  0  0  0  0  0
   91.1570    4.3550  -26.2030 C   0  0  0  0  0  0  0  0  0  0  0  0
   91.1100    4.3070  -27.4340 O   0  0  0  0  0  0  0  0  0  0  0  0
   92.7200    6.2990  -25.8260 C   0  0  0  0  0  0  0  0  0  0  0  0
   94.0070    6.9370  -25.2760 C   0  0  0  0  0  0  0  0  0  0  0  0
   93.9880    8.4330  -25.5100 C   0  0  0  0  0  0  0  0  0  0  0  0
   94.2290    6.6550  -23.7980 C   0  0  0  0  0  0  0  0  0  0  0  0
   90.1310    3.9840  -25.4180 N   0  0  0  0  0  0  0  0  0  0  0  0
   88.8870    3.4520  -25.9760 C   0  0  2  0  0  0  0  0  0  0  0  0
   88.0050    4.5230  -26.6130 C   0  0  0  0  0  0  0  0  0  0  0  0
   87.1430    4.2010  -27.4330 O   0  0  0  0  0  0  0  0  0  0  0  0
   88.1840    2.8620  -24.7540 C   0  0  0  0  0  0  0  0  0  0  0  0
   88.6810    3.6670  -23.6120 C   0  0  0  0  0  0  0  0  0  0  0  0
   90.0970    4.0460  -23.9450 C   0  0  0  0  0  0  0  0  0  0  0  0
   88.2200    5.7800  -26.2340 N   0  0  0  0  0  0  0  0  0  0  0  0
   87.3630    6.8670  -26.6780 C   0  0  2  0  0  0  0  0  0  0  0  0
   88.1240    8.1760  -26.8250 C   0  0  0  0  0  0  0  0  0  0  0  0
   89.3530    8.2090  -26.7250 O   0  0  0  0  0  0  0  0  0  0  0  0
   86.2010    7.0480  -25.7000 C   0  0  0  0  0  0  0  0  0  0  0  0
   86.6570    7.4470  -24.3010 C   0  0  0  0  0  0  0  0  0  0  0  0
   87.8660    7.7050  -24.0920 O   0  0  0  0  0  0  0  0  0  0  0  0
   85.7940    7.5040  -23.3990 O   0  0  0  0  0  0  0  0  0  0  0  0
   87.7460   10.7450  -24.7690 N   0  0  0  0  0  0  0  0  0  0  0  0
   87.4330   11.3930  -23.5050 C   0  0  2  0  0  0  0  0  0  0  0  0
   88.3710   12.5350  -23.1300 C   0  0  0  0  0  0  0  0  0  0  0  0
   88.0490   13.3200  -22.2370 O   0  0  0  0  0  0  0  0  0  0  0  0
   87.3470   10.3760  -22.3650 C   0  0  0  0  0  0  0  0  0  0  0  0
   86.0000    9.9990  -22.1400 O   0  0  0  0  0  0  0  0  0  0  0  0
   89.5180   12.6480  -23.7980 N   0  0  0  0  0  0  0  0  0  0  0  0
   90.4030   13.7750  -23.5050 C   0  0  2  0  0  0  0  0  0  0  0  0
   89.7510   15.0720  -23.9680 C   0  0  0  0  0  0  0  0  0  0  0  0
   90.0650   16.1430  -23.4510 O   0  0  0  0  0  0  0  0  0  0  0  0
   91.8440   13.6220  -24.0700 C   0  0  0  0  0  0  0  0  0  0  0  0
   92.5140   12.3900  -23.4990 C   0  0  0  0  0  0  0  0  0  0  0  0
   91.8550   13.6040  -25.5880 C   0  0  0  0  0  0  0  0  0  0  0  0
   88.8270   14.9520  -24.9230 N   0  0  0  0  0  0  0  0  0  0  0  0
   88.0260   16.0780  -25.3990 C   0  0  2  0  0  0  0  0  0  0  0  0
   86.6460   16.1030  -24.7340 C   0  0  0  0  0  0  0  0  0  0  0  0
   85.6740   16.6290  -25.2770 O   0  0  0  0  0  0  0  0  0  0  0  0
   87.9060   16.0380  -26.9220 C   0  0  0  0  0  0  0  0  0  0  0  0
   89.2170   16.1840  -27.6380 C   0  0  0  0  0  0  0  0  0  0  0  0
   89.6330   15.2270  -28.5460 C   0  0  0  0  0  0  0  0  0  0  0  0
   90.0380   17.2800  -27.4030 C   0  0  0  0  0  0  0  0  0  0  0  0
   90.8420   15.3620  -29.2170 C   0  0  0  0  0  0  0  0  0  0  0  0
   91.2500   17.4200  -28.0640 C   0  0  0  0  0  0  0  0  0  0  0  0
   91.6510   16.4630  -28.9710 C   0  0  0  0  0  0  0  0  0  0  0  0
   86.5980   15.5160  -23.5460 N   0  0  0  0  0  0  0  0  0  0  0  0
   85.4420   15.4810  -22.6530 C   0  0  2  0  0  0  0  0  0  0  0  0
   84.6970   16.8150  -22.5010 C   0  0  0  0  0  0  0  0  0  0  0  0
   83.4750   16.8300  -22.3860 O   0  0  0  0  0  0  0  0  0  0  0  0
   85.9530   15.0670  -21.2810 C   0  0  0  0  0  0  0  0  0  0  0  0
   85.0690   14.1650  -20.4930 C   0  0  0  0  0  0  0  0  0  0  0  0
   85.8250   13.5140  -19.3550 C   0  0  0  0  0  0  0  0  0  0  0  0
   86.6700   14.1370  -18.7090 O   0  0  0  0  0  0  0  0  0  0  0  0
   85.5330   12.2460  -19.1120 N   0  0  0  0  0  0  0  0  0  0  0  0
   85.9970    2.5380  -29.4740 N   0  0  0  0  0  0  0  0  0  0  0  0
   84.7140    1.8330  -29.3590 C   0  0  2  0  0  0  0  0  0  0  0  0
   83.5280    2.7770  -29.1610 C   0  0  0  0  0  0  0  0  0  0  0  0
   82.4050    2.4740  -29.5650 O   0  0  0  0  0  0  0  0  0  0  0  0
   84.7630    0.8030  -28.2420 C   0  0  0  0  0  0  0  0  0  0  0  0
   85.7400   -0.1760  -28.5240 O   0  0  0  0  0  0  0  0  0  0  0  0
   83.7760    3.9180  -28.5320 N   0  0  0  0  0  0  0  0  0  0  0  0
   82.7420    4.9270  -28.3660 C   0  0  2  0  0  0  0  0  0  0  0  0
   83.3530    6.3200  -28.4700 C   0  0  0  0  0  0  0  0  0  0  0  0
   84.5780    6.4460  -28.5400 O   0  0  0  0  0  0  0  0  0  0  0  0
   81.9630    4.7180  -27.0590 C   0  0  0  0  0  0  0  0  0  0  0  0
   82.7570    4.8180  -25.7890 C   0  0  0  0  0  0  0  0  0  0  0  0
   82.9820    5.9440  -25.0560 C   0  0  0  0  0  0  0  0  0  0  0  0
   83.3880    3.7460  -25.0810 C   0  0  0  0  0  0  0  0  0  0  0  0
   83.7300    5.6460  -23.9440 N   0  0  0  0  0  0  0  0  0  0  0  0
   83.9940    4.3030  -23.9350 C   0  0  0  0  0  0  0  0  0  0  0  0
   83.5090    2.3720  -25.3080 C   0  0  0  0  0  0  0  0  0  0  0  0
   84.7110    3.5360  -23.0170 C   0  0  0  0  0  0  0  0  0  0  0  0
   84.2240    1.6070  -24.3930 C   0  0  0  0  0  0  0  0  0  0  0  0
   84.8150    2.1940  -23.2630 C   0  0  0  0  0  0  0  0  0  0  0  0
   81.2350   14.1980  -24.5500 N   0  0  0  0  0  0  0  0  0  0  0  0
   79.9770   14.4230  -23.8430 C   0  0  2  0  0  0  0  0  0  0  0  0
   79.6060   15.8680  -23.4900 C   0  0  0  0  0  0  0  0  0  0  0  0
   78.5440   16.1050  -22.9100 O   0  0  0  0  0  0  0  0  0  0  0  0
   79.8900   13.5200  -22.6090 C   0  0  0  0  0  0  0  0  0  0  0  0
   80.8200   13.8500  -21.4580 C   0  0  0  0  0  0  0  0  0  0  0  0
   80.4280   12.9780  -20.2820 C   0  0  0  0  0  0  0  0  0  0  0  0
   81.1970   13.2310  -19.0640 N   0  0  0  0  0  0  0  0  0  0  0  0
   82.2380   12.5050  -18.6600 C   0  0  0  0  0  0  0  0  0  0  0  0
   82.6730   11.4800  -19.3870 N   0  0  0  0  0  0  0  0  0  0  0  0
   82.8530   12.8130  -17.5250 N   0  0  0  0  0  0  0  0  0  0  0  0
  2  1  1  6
  3  2  1  0
  4  3  2  0
  5  2  1  0
  6  5  1  0
  7  6  1  0
  8  7  2  0
  9  7  1  0
 10  3  1  0
 11 10  1  0
 11 12  1  1
 13 12  2  0
 14 11  1  0
 15 14  1  0
 16 15  1  0
 16 10  1  0
 17 12  1  0
 18 17  1  0
 19 18  1  0
 20 19  2  0
 18 21  1  1
 22 21  1  0
 23 22  1  0
 24 23  2  0
 25 23  1  0
 27 26  1  1
 28 27  1  0
 29 28  2  0
 30 27  1  0
 31 30  1  0
 32 31  1  0
 33 31  1  0
 34 28  1  0
 35 34  1  0
 36 35  1  0
 37 36  2  0
 35 38  1  1
 39 38  1  0
 40 39  1  0
 41 40  2  0
 42 40  1  0
 44 43  1  6
 45 44  1  0
 46 45  2  0
 47 44  1  0
 48 47  1  0
 49 48  1  0
 50 49  2  0
 51 49  1  0
 53 52  1  6
 54 53  1  0
 55 54  2  0
 56 53  1  0
 57 56  1  0
 58 54  1  0
 59 58  1  0
 60 59  1  0
 61 60  2  0
 59 62  1  6
 63 62  1  0
 64 63  1  0
 65 63  1  0
 66 60  1  0
 67 66  1  0
 67 68  1  1
 69 68  2  0
 70 67  1  0
 71 70  1  0
 72 71  1  0
 72 66  1  0
 73 68  1  0
 74 73  1  0
 75 74  1  0
 76 75  2  0
 74 77  1  1
 78 77  1  0
 79 78  2  0
 80 78  1  0
 82 81  1  6
 83 82  1  0
 84 83  2  0
 85 82  1  0
 86 85  1  0
 87 83  1  0
 88 87  1  6
 89 88  1  0
 90 89  2  0
 91 88  1  0
 92 91  1  0
 93 91  1  0
 94 89  1  0
 95 94  1  0
 96 95  1  0
 97 96  2  0
 95 98  1  6
 99 98  1  0
100 99  2  0
101 99  1  0
102100  1  0
103101  2  0
104102  2  0
104103  1  0
105 96  1  0
106105  1  0
107106  1  0
108107  2  0
106109  1  1
110109  1  0
111110  1  0
112111  2  0
113111  1  0
115114  1  1
116115  1  0
117116  2  0
118115  1  0
119118  1  0
120116  1  0
121120  1  0
122121  1  0
123122  2  0
121124  1  1
125124  1  0
126125  2  0
127125  1  0
128126  1  0
129127  2  0
129128  1  0
130127  1  0
131129  1  0
132130  2  0
133132  1  0
133131  2  0
135134  1  1
136135  1  0
137136  2  0
138135  1  0
139138  1  0
140139  1  0
141140  1  0
142141  1  0
143142  1  0
144142  2  0
M  END
$$$$
