
     RDKit          3D

 71 68  0  0  0  0  0  0  0  0999 V2000
  -27.5440   60.1210  -47.1880 N   0  0  0  0  0  0  0  0  0  0  0  0
  -26.2120   59.7650  -47.6700 C   0  0  2  0  0  0  0  0  0  0  0  0
  -26.0260   58.2500  -47.7040 C   0  0  0  0  0  0  0  0  0  0  0  0
  -25.7020   57.6360  -46.6890 O   0  0  0  0  0  0  0  0  0  0  0  0
  -25.1320   60.4000  -46.7920 C   0  0  0  0  0  0  0  0  0  0  0  0
  -24.4700   61.6000  -47.4460 C   0  0  0  0  0  0  0  0  0  0  0  0
  -24.0300   61.5360  -48.5950 O   0  0  0  0  0  0  0  0  0  0  0  0
  -24.3910   62.7040  -46.7070 N   0  0  0  0  0  0  0  0  0  0  0  0
  -23.7840   56.4590  -48.5160 N   0  0  0  0  0  0  0  0  0  0  0  0
  -22.4560   56.0120  -48.1130 C   0  0  2  0  0  0  0  0  0  0  0  0
  -22.3220   55.9700  -46.5940 C   0  0  0  0  0  0  0  0  0  0  0  0
  -21.3660   55.4060  -46.0620 O   0  0  0  0  0  0  0  0  0  0  0  0
  -21.3540   56.9110  -48.7030 C   0  0  2  0  0  0  0  0  0  0  0  0
  -21.6330   58.2790  -48.3870 O   0  0  0  0  0  0  0  0  0  0  0  0
  -21.2990   56.7600  -50.2100 C   0  0  0  0  0  0  0  0  0  0  0  0
  -23.2880   56.5680  -45.9030 N   0  0  0  0  0  0  0  0  0  0  0  0
  -23.3010   56.5900  -44.4440 C   0  0  2  0  0  0  0  0  0  0  0  0
  -24.2760   55.5550  -43.8910 C   0  0  0  0  0  0  0  0  0  0  0  0
  -25.4880   55.7620  -43.9070 O   0  0  0  0  0  0  0  0  0  0  0  0
  -23.6600   57.9910  -43.9400 C   0  0  0  0  0  0  0  0  0  0  0  0
  -23.6020   58.1070  -42.4300 C   0  0  0  0  0  0  0  0  0  0  0  0
  -23.4920   57.1070  -41.7230 O   0  0  0  0  0  0  0  0  0  0  0  0
  -23.6790   59.3340  -41.9280 N   0  0  0  0  0  0  0  0  0  0  0  0
  -23.7390   54.4400  -43.4030 N   0  0  0  0  0  0  0  0  0  0  0  0
  -24.5620   53.3300  -42.9250 C   0  0  2  0  0  0  0  0  0  0  0  0
  -25.4760   53.6840  -41.7520 C   0  0  0  0  0  0  0  0  0  0  0  0
  -26.4200   52.9550  -41.4540 O   0  0  0  0  0  0  0  0  0  0  0  0
  -23.6860   52.1290  -42.5610 C   0  0  0  0  0  0  0  0  0  0  0  0
  -22.7130   52.4320  -41.4390 C   0  0  0  0  0  0  0  0  0  0  0  0
  -23.0980   52.9370  -40.3850 O   0  0  0  0  0  0  0  0  0  0  0  0
  -21.4420   52.1160  -41.6590 N   0  0  0  0  0  0  0  0  0  0  0  0
  -28.2010   49.3590  -43.9720 N   0  0  0  0  0  0  0  0  0  0  0  0
  -27.0890   48.6750  -44.6210 C   0  0  2  0  0  0  0  0  0  0  0  0
  -25.9410   48.4290  -43.6490 C   0  0  0  0  0  0  0  0  0  0  0  0
  -25.5400   49.3270  -42.9120 O   0  0  0  0  0  0  0  0  0  0  0  0
  -26.5960   49.4940  -45.8150 C   0  0  0  0  0  0  0  0  0  0  0  0
  -25.4770   48.8420  -46.6010 C   0  0  0  0  0  0  0  0  0  0  0  0
  -25.0110   49.7490  -47.7240 C   0  0  0  0  0  0  0  0  0  0  0  0
  -24.5220   51.0280  -47.2190 N   0  0  0  0  0  0  0  0  0  0  0  0
  -23.2600   51.2590  -46.8760 C   0  0  0  0  0  0  0  0  0  0  0  0
  -22.3570   50.2960  -46.9860 N   0  0  0  0  0  0  0  0  0  0  0  0
  -22.9000   52.4520  -46.4230 N   0  0  0  0  0  0  0  0  0  0  0  0
  -25.4140   47.2090  -43.6500 N   0  0  0  0  0  0  0  0  0  0  0  0
  -24.2960   46.8650  -42.7780 C   0  0  2  0  0  0  0  0  0  0  0  0
  -23.0160   47.5430  -43.2450 C   0  0  0  0  0  0  0  0  0  0  0  0
  -22.9230   47.9900  -44.3870 O   0  0  0  0  0  0  0  0  0  0  0  0
  -24.0890   45.3500  -42.7360 C   0  0  0  0  0  0  0  0  0  0  0  0
  -25.2290   44.6230  -42.0520 C   0  0  0  0  0  0  0  0  0  0  0  0
  -25.1770   43.3760  -41.9790 O   0  0  0  0  0  0  0  0  0  0  0  0
  -26.1750   45.2940  -41.5880 O   0  0  0  0  0  0  0  0  0  0  0  0
  -22.0320   47.6160  -42.3560 N   0  0  0  0  0  0  0  0  0  0  0  0
  -20.7330   48.1680  -42.6970 C   0  0  0  0  0  0  0  0  0  0  0  0
  -19.6300   47.4660  -41.9320 C   0  0  0  0  0  0  0  0  0  0  0  0
  -19.9050   46.7080  -41.0060 O   0  0  0  0  0  0  0  0  0  0  0  0
  -18.3820   47.7050  -42.3220 N   0  0  0  0  0  0  0  0  0  0  0  0
  -17.2530   47.1640  -41.5870 C   0  0  0  0  0  0  0  0  0  0  0  0
  -16.2130   46.4450  -42.4240 C   0  0  0  0  0  0  0  0  0  0  0  0
  -15.0140   46.5590  -42.1640 O   0  0  0  0  0  0  0  0  0  0  0  0
  -16.6630   45.6970  -43.4250 N   0  0  0  0  0  0  0  0  0  0  0  0
  -15.7480   44.9220  -44.2560 C   0  0  2  0  0  0  0  0  0  0  0  0
  -15.6570   45.4790  -45.6720 C   0  0  0  0  0  0  0  0  0  0  0  0
  -16.5190   46.2430  -46.1070 O   0  0  0  0  0  0  0  0  0  0  0  0
  -16.1630   43.4580  -44.2830 C   0  0  0  0  0  0  0  0  0  0  0  0
  -14.6040   45.0910  -46.3850 N   0  0  0  0  0  0  0  0  0  0  0  0
  -14.3890   45.5490  -47.7530 C   0  0  2  0  0  0  0  0  0  0  0  0
  -15.2140   44.7630  -48.7650 C   0  0  0  0  0  0  0  0  0  0  0  0
  -16.2620   44.2110  -48.4290 O   0  0  0  0  0  0  0  0  0  0  0  0
  -12.9050   45.4770  -48.1140 C   0  0  0  0  0  0  0  0  0  0  0  0
  -12.0540   46.4000  -47.2660 C   0  0  0  0  0  0  0  0  0  0  0  0
  -12.5730   47.2320  -46.5210 O   0  0  0  0  0  0  0  0  0  0  0  0
  -10.7390   46.2600  -47.3760 N   0  0  0  0  0  0  0  0  0  0  0  0
  2  1  1  1
  3  2  1  0
  4  3  2  0
  5  2  1  0
  6  5  1  0
  7  6  2  0
  8  6  1  0
 10  9  1  1
 11 10  1  0
 12 11  2  0
 13 10  1  0
 14 13  1  0
 13 15  1  6
 16 11  1  0
 17 16  1  0
 18 17  1  0
 19 18  2  0
 17 20  1  6
 21 20  1  0
 22 21  2  0
 23 21  1  0
 24 18  1  0
 25 24  1  0
 26 25  1  0
 27 26  2  0
 25 28  1  1
 29 28  1  0
 30 29  2  0
 31 29  1  0
 33 32  1  1
 34 33  1  0
 35 34  2  0
 36 33  1  0
 37 36  1  0
 38 37  1  0
 39 38  1  0
 40 39  1  0
 41 40  1  0
 42 40  2  0
 43 34  1  0
 44 43  1  0
 45 44  1  0
 46 45  2  0
 44 47  1  6
 48 47  1  0
 49 48  2  0
 50 48  1  0
 51 45  1  0
 52 51  1  0
 53 52  1  0
 54 53  2  0
 55 53  1  0
 56 55  1  0
 57 56  1  0
 58 57  2  0
 59 57  1  0
 60 59  1  0
 61 60  1  0
 62 61  2  0
 60 63  1  6
 64 61  1  0
 65 64  1  0
 66 65  1  0
 67 66  2  0
 65 68  1  6
 69 68  1  0
 70 69  2  0
 71 69  1  0
M  END
$$$$
