
     RDKit          3D

124118  0  0  0  0  0  0  0  0999 V2000
  -23.7390   54.4400  -43.4030 N   0  0  0  0  0  0  0  0  0  0  0  0
  -24.5620   53.3300  -42.9250 C   0  0  2  0  0  0  0  0  0  0  0  0
  -25.4760   53.6840  -41.7520 C   0  0  0  0  0  0  0  0  0  0  0  0
  -26.4200   52.9550  -41.4540 O   0  0  0  0  0  0  0  0  0  0  0  0
  -23.6860   52.1290  -42.5610 C   0  0  0  0  0  0  0  0  0  0  0  0
  -22.7130   52.4320  -41.4390 C   0  0  0  0  0  0  0  0  0  0  0  0
  -23.0980   52.9370  -40.3850 O   0  0  0  0  0  0  0  0  0  0  0  0
  -21.4420   52.1160  -41.6590 N   0  0  0  0  0  0  0  0  0  0  0  0
  -25.1920   54.8010  -41.0900 N   0  0  0  0  0  0  0  0  0  0  0  0
  -25.9840   55.2280  -39.9400 C   0  0  2  0  0  0  0  0  0  0  0  0
  -27.3010   55.8620  -40.3750 C   0  0  0  0  0  0  0  0  0  0  0  0
  -28.2600   55.9110  -39.6040 O   0  0  0  0  0  0  0  0  0  0  0  0
  -25.1880   56.1930  -39.0690 C   0  0  0  0  0  0  0  0  0  0  0  0
  -27.3410   56.3480  -41.6120 N   0  0  0  0  0  0  0  0  0  0  0  0
  -28.5480   56.9560  -42.1610 C   0  0  2  0  0  0  0  0  0  0  0  0
  -29.5260   55.8880  -42.6360 C   0  0  0  0  0  0  0  0  0  0  0  0
  -29.1360   54.9290  -43.3020 O   0  0  0  0  0  0  0  0  0  0  0  0
  -28.2010   57.8930  -43.3190 C   0  0  0  0  0  0  0  0  0  0  0  0
  -27.2780   59.0410  -42.9440 C   0  0  0  0  0  0  0  0  0  0  0  0
  -27.9280   59.9730  -41.9400 C   0  0  0  0  0  0  0  0  0  0  0  0
  -27.0040   61.1260  -41.5860 C   0  0  0  0  0  0  0  0  0  0  0  0
  -27.6310   62.0600  -40.6090 N   0  0  0  0  0  0  0  0  0  0  0  0
  -30.7970   56.0580  -42.2920 N   0  0  0  0  0  0  0  0  0  0  0  0
  -31.8250   55.1030  -42.6820 C   0  0  2  0  0  0  0  0  0  0  0  0
  -32.1100   55.1970  -44.1760 C   0  0  0  0  0  0  0  0  0  0  0  0
  -31.9500   56.2560  -44.7830 O   0  0  0  0  0  0  0  0  0  0  0  0
  -33.1310   55.3300  -41.9010 C   0  0  2  0  0  0  0  0  0  0  0  0
  -33.6770   56.6100  -42.2400 O   0  0  0  0  0  0  0  0  0  0  0  0
  -32.8690   55.2800  -40.4050 C   0  0  0  0  0  0  0  0  0  0  0  0
  -30.2410   42.5330  -36.5860 N   0  0  0  0  0  0  0  0  0  0  0  0
  -29.2020   41.9690  -35.7310 C   0  0  2  0  0  0  0  0  0  0  0  0
  -29.5240   42.1290  -34.2500 C   0  0  0  0  0  0  0  0  0  0  0  0
  -28.8120   41.6060  -33.3930 O   0  0  0  0  0  0  0  0  0  0  0  0
  -27.8500   42.6160  -36.0390 C   0  0  0  0  0  0  0  0  0  0  0  0
  -27.4720   42.4010  -37.3870 O   0  0  0  0  0  0  0  0  0  0  0  0
  -30.5930   42.8590  -33.9520 N   0  0  0  0  0  0  0  0  0  0  0  0
  -31.0010   43.0670  -32.5760 C   0  0  0  0  0  0  0  0  0  0  0  0
  -31.9110   44.2650  -32.3970 C   0  0  0  0  0  0  0  0  0  0  0  0
  -32.3260   44.8950  -33.3720 O   0  0  0  0  0  0  0  0  0  0  0  0
  -32.2220   44.5760  -31.1410 N   0  0  0  0  0  0  0  0  0  0  0  0
  -33.0710   45.7060  -30.8120 C   0  0  0  0  0  0  0  0  0  0  0  0
  -34.3700   45.2760  -30.1620 C   0  0  0  0  0  0  0  0  0  0  0  0
  -34.6390   44.0820  -30.0290 O   0  0  0  0  0  0  0  0  0  0  0  0
  -35.1770   46.2500  -29.7530 N   0  0  0  0  0  0  0  0  0  0  0  0
  -36.4890   45.9650  -29.1830 C   0  0  2  0  0  0  0  0  0  0  0  0
  -37.3310   45.1760  -30.1760 C   0  0  0  0  0  0  0  0  0  0  0  0
  -37.1010   45.2380  -31.3820 O   0  0  0  0  0  0  0  0  0  0  0  0
  -37.2060   47.2600  -28.7940 C   0  0  0  0  0  0  0  0  0  0  0  0
  -36.5550   47.9540  -27.6120 C   0  0  0  0  0  0  0  0  0  0  0  0
  -35.7040   47.3260  -26.9480 O   0  0  0  0  0  0  0  0  0  0  0  0
  -36.9000   49.1250  -27.3450 O   0  0  0  0  0  0  0  0  0  0  0  0
  -38.3070   44.4360  -29.6640 N   0  0  0  0  0  0  0  0  0  0  0  0
  -39.1320   43.5750  -30.5030 C   0  0  2  0  0  0  0  0  0  0  0  0
  -39.9210   44.3740  -31.5410 C   0  0  0  0  0  0  0  0  0  0  0  0
  -40.2680   43.8560  -32.6010 O   0  0  0  0  0  0  0  0  0  0  0  0
  -40.0750   42.7360  -29.6380 C   0  0  0  0  0  0  0  0  0  0  0  0
  -40.5490   41.4180  -30.2470 C   0  0  0  0  0  0  0  0  0  0  0  0
  -39.3580   40.5620  -30.6450 C   0  0  0  0  0  0  0  0  0  0  0  0
  -41.4440   40.6720  -29.2720 C   0  0  0  0  0  0  0  0  0  0  0  0
  -38.7460   46.5240  -33.2650 N   0  0  0  0  0  0  0  0  0  0  0  0
  -37.7920   46.7960  -34.3310 C   0  0  2  0  0  0  0  0  0  0  0  0
  -37.4540   45.5300  -35.1050 C   0  0  0  0  0  0  0  0  0  0  0  0
  -37.3980   45.5350  -36.3350 O   0  0  0  0  0  0  0  0  0  0  0  0
  -36.4900   47.3930  -33.7710 C   0  0  2  0  0  0  0  0  0  0  0  0
  -36.6850   48.8690  -33.4350 C   0  0  0  0  0  0  0  0  0  0  0  0
  -35.3550   47.2300  -34.7660 C   0  0  0  0  0  0  0  0  0  0  0  0
  -35.3870   49.6060  -33.2230 C   0  0  0  0  0  0  0  0  0  0  0  0
  -43.8250   53.9970  -28.6940 N   0  0  0  0  0  0  0  0  0  0  0  0
  -43.0240   54.7640  -29.6370 C   0  0  2  0  0  0  0  0  0  0  0  0
  -43.1970   56.2520  -29.3630 C   0  0  0  0  0  0  0  0  0  0  0  0
  -42.3120   57.0550  -29.6600 O   0  0  0  0  0  0  0  0  0  0  0  0
  -43.4410   54.4510  -31.0750 C   0  0  0  0  0  0  0  0  0  0  0  0
  -44.8500   54.8610  -31.3860 C   0  0  0  0  0  0  0  0  0  0  0  0
  -45.9610   54.0720  -31.3440 C   0  0  0  0  0  0  0  0  0  0  0  0
  -45.2980   56.1640  -31.7790 C   0  0  0  0  0  0  0  0  0  0  0  0
  -47.0720   54.8010  -31.6900 N   0  0  0  0  0  0  0  0  0  0  0  0
  -46.6920   56.0880  -31.9610 C   0  0  0  0  0  0  0  0  0  0  0  0
  -44.6550   57.3860  -31.9970 C   0  0  0  0  0  0  0  0  0  0  0  0
  -47.4550   57.1870  -32.3490 C   0  0  0  0  0  0  0  0  0  0  0  0
  -45.4140   58.4760  -32.3820 C   0  0  0  0  0  0  0  0  0  0  0  0
  -46.7990   58.3690  -32.5530 C   0  0  0  0  0  0  0  0  0  0  0  0
  -31.5460   49.1120  -43.3450 N   0  0  0  0  0  0  0  0  0  0  0  0
  -30.2840   49.5260  -42.7380 C   0  0  2  0  0  0  0  0  0  0  0  0
  -29.1370   48.6940  -43.3050 C   0  0  0  0  0  0  0  0  0  0  0  0
  -29.1020   47.4750  -43.1400 O   0  0  0  0  0  0  0  0  0  0  0  0
  -30.3070   49.3650  -41.2020 C   0  0  2  0  0  0  0  0  0  0  0  0
  -31.3250   50.2030  -40.6410 O   0  0  0  0  0  0  0  0  0  0  0  0
  -28.9620   49.7450  -40.6040 C   0  0  0  0  0  0  0  0  0  0  0  0
  -30.7950   45.1480  -44.0540 N   0  0  0  0  0  0  0  0  0  0  0  0
  -31.6730   44.6150  -43.0210 C   0  0  2  0  0  0  0  0  0  0  0  0
  -32.8750   45.5290  -42.8060 C   0  0  0  0  0  0  0  0  0  0  0  0
  -32.7430   46.7500  -42.8360 O   0  0  0  0  0  0  0  0  0  0  0  0
  -30.9030   44.4380  -41.7100 C   0  0  0  0  0  0  0  0  0  0  0  0
  -29.6540   43.5860  -41.8470 C   0  0  0  0  0  0  0  0  0  0  0  0
  -28.9040   43.4680  -40.5320 C   0  0  0  0  0  0  0  0  0  0  0  0
  -27.6060   42.8250  -40.7150 N   0  0  0  0  0  0  0  0  0  0  0  0
  -27.3990   41.5140  -40.6260 C   0  0  0  0  0  0  0  0  0  0  0  0
  -28.4060   40.7000  -40.3460 N   0  0  0  0  0  0  0  0  0  0  0  0
  -26.1850   41.0170  -40.8130 N   0  0  0  0  0  0  0  0  0  0  0  0
  -35.4700   50.9690  -39.6460 N   0  0  0  0  0  0  0  0  0  0  0  0
  -36.1940   52.2200  -39.5070 C   0  0  0  0  0  0  0  0  0  0  0  0
  -35.6230   53.0790  -38.3940 C   0  0  0  0  0  0  0  0  0  0  0  0
  -35.0190   54.1200  -38.6480 O   0  0  0  0  0  0  0  0  0  0  0  0
  -35.8240   52.6410  -37.1550 N   0  0  0  0  0  0  0  0  0  0  0  0
  -35.2490   53.3070  -36.0010 C   0  0  0  0  0  0  0  0  0  0  0  0
  -35.8490   54.6610  -35.6680 C   0  0  0  0  0  0  0  0  0  0  0  0
  -35.3610   55.3520  -34.7730 O   0  0  0  0  0  0  0  0  0  0  0  0
  -36.9060   55.0420  -36.3790 N   0  0  0  0  0  0  0  0  0  0  0  0
  -37.5530   56.3300  -36.1510 C   0  0  2  0  0  0  0  0  0  0  0  0
  -38.8530   56.4690  -36.9400 C   0  0  0  0  0  0  0  0  0  0  0  0
  -38.8750   56.2690  -38.1540 O   0  0  0  0  0  0  0  0  0  0  0  0
  -36.5970   57.4690  -36.5050 C   0  0  0  0  0  0  0  0  0  0  0  0
  -37.0260   58.7980  -35.9170 C   0  0  0  0  0  0  0  0  0  0  0  0
  -37.9370   58.8610  -35.0920 O   0  0  0  0  0  0  0  0  0  0  0  0
  -36.3640   59.8710  -36.3360 N   0  0  0  0  0  0  0  0  0  0  0  0
  -40.6240   59.1960  -37.4950 N   0  0  0  0  0  0  0  0  0  0  0  0
  -40.6210   60.3930  -38.3320 C   0  0  2  0  0  0  0  0  0  0  0  0
  -40.3590   60.0470  -39.7940 C   0  0  0  0  0  0  0  0  0  0  0  0
  -40.8890   60.6870  -40.7000 O   0  0  0  0  0  0  0  0  0  0  0  0
  -39.5700   61.3910  -37.8460 C   0  0  0  0  0  0  0  0  0  0  0  0
  -39.8380   61.9680  -36.4700 C   0  0  0  0  0  0  0  0  0  0  0  0
  -38.8150   63.0350  -36.1210 C   0  0  0  0  0  0  0  0  0  0  0  0
  -39.0940   63.6500  -34.7660 C   0  0  0  0  0  0  0  0  0  0  0  0
  -38.0670   64.6690  -34.4170 N   0  0  0  0  0  0  0  0  0  0  0  0
  2  1  1  1
  3  2  1  0
  4  3  2  0
  5  2  1  0
  6  5  1  0
  7  6  2  0
  8  6  1  0
  9  3  1  0
 10  9  1  0
 11 10  1  0
 12 11  2  0
 10 13  1  6
 14 11  1  0
 15 14  1  0
 16 15  1  0
 17 16  2  0
 15 18  1  6
 19 18  1  0
 20 19  1  0
 21 20  1  0
 22 21  1  0
 23 16  1  0
 24 23  1  1
 25 24  1  0
 26 25  2  0
 27 24  1  0
 28 27  1  0
 27 29  1  1
 31 30  1  6
 32 31  1  0
 33 32  2  0
 34 31  1  0
 35 34  1  0
 36 32  1  0
 37 36  1  0
 38 37  1  0
 39 38  2  0
 40 38  1  0
 41 40  1  0
 42 41  1  0
 43 42  2  0
 44 42  1  0
 45 44  1  0
 46 45  1  0
 47 46  2  0
 45 48  1  6
 49 48  1  0
 50 49  2  0
 51 49  1  0
 52 46  1  0
 53 52  1  0
 54 53  1  0
 55 54  2  0
 53 56  1  1
 57 56  1  0
 58 57  1  0
 59 57  1  0
 61 60  1  1
 62 61  1  0
 63 62  2  0
 64 61  1  0
 65 64  1  0
 64 66  1  6
 67 65  1  0
 69 68  1  1
 70 69  1  0
 71 70  2  0
 72 69  1  0
 73 72  1  0
 74 73  2  0
 75 73  1  0
 76 74  1  0
 77 76  1  0
 77 75  2  0
 78 75  1  0
 79 77  1  0
 80 78  2  0
 81 80  1  0
 81 79  2  0
 83 82  1  6
 84 83  1  0
 85 84  2  0
 86 83  1  0
 87 86  1  0
 86 88  1  1
 90 89  1  6
 91 90  1  0
 92 91  2  0
 93 90  1  0
 94 93  1  0
 95 94  1  0
 96 95  1  0
 97 96  1  0
 98 97  1  0
 99 97  2  0
101100  1  0
102101  1  0
103102  2  0
104102  1  0
105104  1  0
106105  1  0
107106  2  0
108106  1  0
109108  1  0
110109  1  0
111110  2  0
109112  1  6
113112  1  0
114113  2  0
115113  1  0
117116  1  1
118117  1  0
119118  2  0
120117  1  0
121120  1  0
122121  1  0
123122  1  0
124123  1  0
M  END
$$$$
