
     RDKit          3D

132130  0  0  0  0  0  0  0  0999 V2000
   -4.0780   16.1820   -9.4980 N   0  0  0  0  0  0  0  0  0  0  0  0
   -2.9090   15.5600  -10.1160 C   0  0  2  0  0  0  0  0  0  0  0  0
   -2.0580   14.6890   -9.1820 C   0  0  0  0  0  0  0  0  0  0  0  0
   -1.2570   13.8390   -9.6750 O   0  0  0  0  0  0  0  0  0  0  0  0
   -1.9940   16.6400  -10.7150 C   0  0  0  0  0  0  0  0  0  0  0  0
   -1.2720   17.4350   -9.6840 C   0  0  0  0  0  0  0  0  0  0  0  0
   -1.9070   18.3670   -8.8770 N   0  0  0  0  0  0  0  0  0  0  0  0
    0.0280   17.4450   -9.3230 C   0  0  0  0  0  0  0  0  0  0  0  0
   -1.0270   18.8860   -8.0460 C   0  0  0  0  0  0  0  0  0  0  0  0
    0.1610   18.3550   -8.3040 N   0  0  0  0  0  0  0  0  0  0  0  0
   -2.2220   14.8700   -7.8530 N   0  0  0  0  0  0  0  0  0  0  0  0
   -1.2890   14.2370   -6.9320 C   0  0  2  0  0  0  0  0  0  0  0  0
   -1.4230   12.6890   -7.0070 C   0  0  0  0  0  0  0  0  0  0  0  0
   -0.4440   12.0230   -6.8420 O   0  0  0  0  0  0  0  0  0  0  0  0
   -1.5140   14.6710   -5.4640 C   0  0  0  0  0  0  0  0  0  0  0  0
   -2.9240   14.3530   -4.9480 C   0  0  0  0  0  0  0  0  0  0  0  0
   -3.9420   14.7620   -5.5220 O   0  0  0  0  0  0  0  0  0  0  0  0
   -3.0270   13.6470   -3.9250 O   0  0  0  0  0  0  0  0  0  0  0  0
    0.9810   20.1660  -30.4690 N   0  0  0  0  0  0  0  0  0  0  0  0
    1.6650   21.3060  -29.8940 C   0  0  2  0  0  0  0  0  0  0  0  0
    0.7550   22.5170  -29.7760 C   0  0  0  0  0  0  0  0  0  0  0  0
    0.8590   23.2780  -28.7910 O   0  0  0  0  0  0  0  0  0  0  0  0
    2.9760   21.6540  -30.6710 C   0  0  0  0  0  0  0  0  0  0  0  0
    4.0430   22.4600  -29.8110 C   0  0  0  0  0  0  0  0  0  0  0  0
    4.5210   21.5680  -28.5720 C   0  0  0  0  0  0  0  0  0  0  0  0
    5.1490   22.3910  -27.4430 C   0  0  0  0  0  0  0  0  0  0  0  0
    4.5860   23.8170  -27.3390 N   0  0  0  0  0  0  0  0  0  0  0  0
   -1.7170   22.1520  -26.7790 N   0  0  0  0  0  0  0  0  0  0  0  0
   -0.9730   22.3730  -25.5570 C   0  0  2  0  0  0  0  0  0  0  0  0
   -0.8180   23.8970  -25.2790 C   0  0  0  0  0  0  0  0  0  0  0  0
   -0.7860   24.3160  -24.0700 O   0  0  0  0  0  0  0  0  0  0  0  0
    0.4070   21.6790  -25.6170 C   0  0  0  0  0  0  0  0  0  0  0  0
    0.3450   20.1240  -25.6090 C   0  0  0  0  0  0  0  0  0  0  0  0
    1.6950   19.4520  -25.7080 C   0  0  0  0  0  0  0  0  0  0  0  0
    2.6790   19.8340  -25.0440 O   0  0  0  0  0  0  0  0  0  0  0  0
    1.7460   18.3720  -26.5270 N   0  0  0  0  0  0  0  0  0  0  0  0
    0.9920   22.0730  -17.5160 N   0  0  0  0  0  0  0  0  0  0  0  0
    1.3060   20.7300  -18.0770 C   0  0  2  0  0  0  0  0  0  0  0  0
    2.2930   19.9990  -17.1920 C   0  0  0  0  0  0  0  0  0  0  0  0
    2.4100   18.7880  -17.2200 O   0  0  0  0  0  0  0  0  0  0  0  0
    1.8750   20.8320  -19.5260 C   0  0  0  0  0  0  0  0  0  0  0  0
    0.8060   21.1800  -20.5320 C   0  0  0  0  0  0  0  0  0  0  0  0
    0.6510   22.3690  -21.1830 C   0  0  0  0  0  0  0  0  0  0  0  0
   -0.2710   20.3310  -21.0010 C   0  0  0  0  0  0  0  0  0  0  0  0
   -0.4500   22.3230  -21.9910 N   0  0  0  0  0  0  0  0  0  0  0  0
   -1.0060   21.0790  -21.9400 C   0  0  0  0  0  0  0  0  0  0  0  0
   -0.6610   19.0030  -20.7340 C   0  0  0  0  0  0  0  0  0  0  0  0
   -2.1390   20.5730  -22.5820 C   0  0  0  0  0  0  0  0  0  0  0  0
   -1.7820   18.4930  -21.4040 C   0  0  0  0  0  0  0  0  0  0  0  0
   -2.5110   19.2660  -22.2990 C   0  0  0  0  0  0  0  0  0  0  0  0
    3.0720   20.7430  -16.4270 N   0  0  0  0  0  0  0  0  0  0  0  0
    3.9880   20.0210  -15.5910 C   0  0  2  0  0  0  0  0  0  0  0  0
    3.3760   19.1570  -14.4490 C   0  0  0  0  0  0  0  0  0  0  0  0
    4.0330   18.2290  -13.9910 O   0  0  0  0  0  0  0  0  0  0  0  0
    5.0470   20.9270  -15.0460 C   0  0  0  0  0  0  0  0  0  0  0  0
    5.9620   21.5070  -16.1850 C   0  0  0  0  0  0  0  0  0  0  0  0
    6.6900   20.6960  -16.9080 O   0  0  0  0  0  0  0  0  0  0  0  0
    5.9040   22.7720  -16.3370 O   0  0  0  0  0  0  0  0  0  0  0  0
    2.1960   19.5150  -13.9930 N   0  0  0  0  0  0  0  0  0  0  0  0
    1.5000   18.8560  -12.8900 C   0  0  2  0  0  0  0  0  0  0  0  0
    1.0860   17.4470  -13.3840 C   0  0  0  0  0  0  0  0  0  0  0  0
    0.8450   16.5660  -12.5520 O   0  0  0  0  0  0  0  0  0  0  0  0
    0.2120   19.6550  -12.5040 C   0  0  0  0  0  0  0  0  0  0  0  0
    1.0130   17.2820  -14.7330 N   0  0  0  0  0  0  0  0  0  0  0  0
    0.4550   16.0470  -15.3590 C   0  0  2  0  0  0  0  0  0  0  0  0
    1.5040   15.3020  -16.2180 C   0  0  0  0  0  0  0  0  0  0  0  0
    1.1780   14.4810  -17.0940 O   0  0  0  0  0  0  0  0  0  0  0  0
   -0.8380   16.3590  -16.1770 C   0  0  0  0  0  0  0  0  0  0  0  0
   -1.9770   16.8300  -15.2590 C   0  0  0  0  0  0  0  0  0  0  0  0
   -0.5590   17.3760  -17.3110 C   0  0  0  0  0  0  0  0  0  0  0  0
    2.7760   15.5850  -15.9420 N   0  0  0  0  0  0  0  0  0  0  0  0
    3.8550   14.8660  -16.5730 C   0  0  2  0  0  0  0  0  0  0  0  0
    4.3600   13.9000  -15.5580 C   0  0  0  0  0  0  0  0  0  0  0  0
    4.4510   14.2380  -14.3590 O   0  0  0  0  0  0  0  0  0  0  0  0
    5.0170   15.7700  -16.9040 C   0  0  0  0  0  0  0  0  0  0  0  0
    4.9090   16.3970  -18.2740 C   0  0  0  0  0  0  0  0  0  0  0  0
    6.2510   17.2000  -18.7210 C   0  0  0  0  0  0  0  0  0  0  0  0
    5.9490   17.7000  -20.0420 N   0  0  0  0  0  0  0  0  0  0  0  0
    5.5260   18.9380  -20.3050 C   0  0  0  0  0  0  0  0  0  0  0  0
    5.5240   19.9330  -19.3930 N   0  0  0  0  0  0  0  0  0  0  0  0
    5.1920   19.2190  -21.5610 N   0  0  0  0  0  0  0  0  0  0  0  0
    7.4170   10.8990  -15.4050 N   0  0  0  0  0  0  0  0  0  0  0  0
    8.5690   10.3350  -16.1500 C   0  0  2  0  0  0  0  0  0  0  0  0
    8.7480   10.9440  -17.5020 C   0  0  0  0  0  0  0  0  0  0  0  0
    9.0970   10.2140  -18.4170 O   0  0  0  0  0  0  0  0  0  0  0  0
    8.4890    8.8170  -16.3590 C   0  0  0  0  0  0  0  0  0  0  0  0
    8.8820    8.0240  -15.1180 C   0  0  0  0  0  0  0  0  0  0  0  0
    8.2890    6.9410  -14.8100 O   0  0  0  0  0  0  0  0  0  0  0  0
    9.8970    8.5170  -14.4000 N   0  0  0  0  0  0  0  0  0  0  0  0
    8.4470   12.2480  -17.6380 N   0  0  0  0  0  0  0  0  0  0  0  0
    8.6070   12.9380  -18.8960 C   0  0  0  0  0  0  0  0  0  0  0  0
    7.4380   12.7630  -19.8350 C   0  0  0  0  0  0  0  0  0  0  0  0
    7.4530   13.3390  -20.9230 O   0  0  0  0  0  0  0  0  0  0  0  0
    2.4370   23.4450   -4.7430 N   0  0  0  0  0  0  0  0  0  0  0  0
    1.8190   22.4210   -5.5830 C   0  0  2  0  0  0  0  0  0  0  0  0
    2.0870   21.0320   -4.9530 C   0  0  0  0  0  0  0  0  0  0  0  0
    3.1870   20.7200   -4.4810 O   0  0  0  0  0  0  0  0  0  0  0  0
    2.3670   22.4980   -7.0710 C   0  0  2  0  0  0  0  0  0  0  0  0
    1.6110   21.5130   -7.9650 C   0  0  0  0  0  0  0  0  0  0  0  0
    3.8430   22.2990   -7.1610 C   0  0  0  0  0  0  0  0  0  0  0  0
    1.7440   21.8630   -9.4420 C   0  0  0  0  0  0  0  0  0  0  0  0
    1.0810   20.2120   -4.8980 N   0  0  0  0  0  0  0  0  0  0  0  0
    1.3230   18.7890   -4.4910 C   0  0  2  0  0  0  0  0  0  0  0  0
    2.3460   18.0150   -5.3490 C   0  0  0  0  0  0  0  0  0  0  0  0
    2.2640   18.0980   -6.5600 O   0  0  0  0  0  0  0  0  0  0  0  0
    0.0300   18.0540   -4.5480 C   0  0  0  0  0  0  0  0  0  0  0  0
   -1.0350   18.5170   -3.5590 C   0  0  0  0  0  0  0  0  0  0  0  0
   -2.6230   17.5900   -3.7980 S   0  0  0  0  0  0  0  0  0  0  0  0
   -3.8780   18.5330   -2.9040 C   0  0  0  0  0  0  0  0  0  0  0  0
    3.2930   17.2630   -4.7110 N   0  0  0  0  0  0  0  0  0  0  0  0
    4.0720   16.2630   -5.4350 C   0  0  2  0  0  0  0  0  0  0  0  0
    3.0830   15.2320   -6.0330 C   0  0  0  0  0  0  0  0  0  0  0  0
    1.9290   15.1630   -5.6140 O   0  0  0  0  0  0  0  0  0  0  0  0
    4.9450   15.5890   -4.3380 C   0  0  0  0  0  0  0  0  0  0  0  0
    4.9130   16.5560   -3.1330 C   0  0  0  0  0  0  0  0  0  0  0  0
    3.6180   17.2890   -3.2530 C   0  0  0  0  0  0  0  0  0  0  0  0
    3.5330   14.4760   -7.0150 N   0  0  0  0  0  0  0  0  0  0  0  0
    2.7320   13.4540   -7.6310 C   0  0  2  0  0  0  0  0  0  0  0  0
    3.5150   12.1260   -7.5980 C   0  0  0  0  0  0  0  0  0  0  0  0
    3.3160   11.2760   -8.4200 O   0  0  0  0  0  0  0  0  0  0  0  0
    2.3160   13.8940   -9.0400 C   0  0  0  0  0  0  0  0  0  0  0  0
    3.5100   13.9770  -10.0230 C   0  0  0  0  0  0  0  0  0  0  0  0
    4.6780   13.8680   -9.6350 O   0  0  0  0  0  0  0  0  0  0  0  0
    3.1860   14.0100  -11.3220 N   0  0  0  0  0  0  0  0  0  0  0  0
    4.4560   11.9940   -6.6560 N   0  0  0  0  0  0  0  0  0  0  0  0
    5.2100   10.7650   -6.4770 C   0  0  2  0  0  0  0  0  0  0  0  0
    4.2210    9.6310   -6.1160 C   0  0  0  0  0  0  0  0  0  0  0  0
    3.1710    9.8920   -5.5220 O   0  0  0  0  0  0  0  0  0  0  0  0
    6.3380   10.9070   -5.3910 C   0  0  2  0  0  0  0  0  0  0  0  0
    5.7390   11.2320   -3.9890 C   0  0  0  0  0  0  0  0  0  0  0  0
    7.5670   11.8220   -5.9320 C   0  0  0  0  0  0  0  0  0  0  0  0
    6.7640   11.4250   -2.8440 C   0  0  0  0  0  0  0  0  0  0  0  0
  2  1  1  1
  3  2  1  0
  4  3  2  0
  5  2  1  0
  6  5  1  0
  7  6  1  0
  8  6  2  0
  9  7  2  0
 10  9  1  0
 10  8  1  0
 11  3  1  0
 12 11  1  0
 13 12  1  0
 14 13  2  0
 12 15  1  1
 16 15  1  0
 17 16  2  0
 18 16  1  0
 20 19  1  6
 21 20  1  0
 22 21  2  0
 23 20  1  0
 24 23  1  0
 25 24  1  0
 26 25  1  0
 27 26  1  0
 29 28  1  6
 30 29  1  0
 31 30  2  0
 32 29  1  0
 33 32  1  0
 34 33  1  0
 35 34  2  0
 36 34  1  0
 38 37  1  1
 39 38  1  0
 40 39  2  0
 41 38  1  0
 42 41  1  0
 43 42  2  0
 44 42  1  0
 45 43  1  0
 46 44  2  0
 46 45  1  0
 47 44  1  0
 48 46  1  0
 49 47  2  0
 50 48  2  0
 50 49  1  0
 51 39  1  0
 52 51  1  0
 53 52  1  0
 54 53  2  0
 52 55  1  1
 56 55  1  0
 57 56  2  0
 58 56  1  0
 59 53  1  0
 60 59  1  0
 61 60  1  0
 62 61  2  0
 60 63  1  6
 64 61  1  0
 65 64  1  6
 66 65  1  0
 67 66  2  0
 68 65  1  0
 69 68  1  0
 70 68  1  0
 71 66  1  0
 72 71  1  0
 73 72  1  0
 74 73  2  0
 72 75  1  1
 76 75  1  0
 77 76  1  0
 78 77  1  0
 79 78  1  0
 80 79  1  0
 81 79  2  0
 83 82  1  6
 84 83  1  0
 85 84  2  0
 86 83  1  0
 87 86  1  0
 88 87  2  0
 89 87  1  0
 90 84  1  0
 91 90  1  0
 92 91  1  0
 93 92  2  0
 95 94  1  1
 96 95  1  0
 97 96  2  0
 98 95  1  0
 99 98  1  0
 98100  1  1
101 99  1  0
102 96  1  0
103102  1  0
104103  1  0
105104  2  0
103106  1  6
107106  1  0
108107  1  0
109108  1  0
110104  1  0
111110  1  0
111112  1  1
113112  2  0
114111  1  0
115114  1  0
116115  1  0
116110  1  0
117112  1  0
118117  1  0
119118  1  0
120119  2  0
118121  1  6
122121  1  0
123122  2  0
124122  1  0
125119  1  0
126125  1  1
127126  1  0
128127  2  0
129126  1  0
130129  1  0
129131  1  6
132130  1  0
M  END
$$$$
