
     RDKit          3D

 71 68  0  0  0  0  0  0  0  0999 V2000
   13.0220   18.8140  -28.5910 N   0  0  0  0  0  0  0  0  0  0  0  0
   13.1570   18.0780  -27.3330 C   0  0  2  0  0  0  0  0  0  0  0  0
   13.3700   16.5910  -27.5850 C   0  0  0  0  0  0  0  0  0  0  0  0
   12.4100   15.8470  -27.8100 O   0  0  0  0  0  0  0  0  0  0  0  0
   11.8990   18.2940  -26.5010 C   0  0  0  0  0  0  0  0  0  0  0  0
   12.1620   18.2950  -25.0440 C   0  0  0  0  0  0  0  0  0  0  0  0
   12.7370   17.3480  -24.5010 O   0  0  0  0  0  0  0  0  0  0  0  0
   11.7600   19.3900  -24.3930 N   0  0  0  0  0  0  0  0  0  0  0  0
   14.1040   14.1210  -25.7900 N   0  0  0  0  0  0  0  0  0  0  0  0
   13.4560   13.2280  -24.8320 C   0  0  2  0  0  0  0  0  0  0  0  0
   11.9840   13.0070  -25.2110 C   0  0  0  0  0  0  0  0  0  0  0  0
   11.3150   12.0990  -24.7000 O   0  0  0  0  0  0  0  0  0  0  0  0
   13.5340   13.8340  -23.4270 C   0  0  2  0  0  0  0  0  0  0  0  0
   14.8180   14.4480  -23.2540 O   0  0  0  0  0  0  0  0  0  0  0  0
   13.3160   12.7660  -22.3450 C   0  0  0  0  0  0  0  0  0  0  0  0
   11.4900   13.8430  -26.1170 N   0  0  0  0  0  0  0  0  0  0  0  0
   10.0930   13.8020  -26.5360 C   0  0  2  0  0  0  0  0  0  0  0  0
    9.9260   13.0520  -27.8600 C   0  0  0  0  0  0  0  0  0  0  0  0
   10.2220   13.5910  -28.9220 O   0  0  0  0  0  0  0  0  0  0  0  0
    9.5870   15.2380  -26.6770 C   0  0  0  0  0  0  0  0  0  0  0  0
    8.0880   15.3240  -26.8900 C   0  0  0  0  0  0  0  0  0  0  0  0
    7.4680   14.4240  -27.4590 O   0  0  0  0  0  0  0  0  0  0  0  0
    7.4980   16.4320  -26.4490 N   0  0  0  0  0  0  0  0  0  0  0  0
    9.4330   11.8180  -27.8080 N   0  0  0  0  0  0  0  0  0  0  0  0
    9.2960   11.0070  -29.0290 C   0  0  2  0  0  0  0  0  0  0  0  0
    8.3120   11.5760  -30.0470 C   0  0  0  0  0  0  0  0  0  0  0  0
    8.2550   11.1180  -31.1970 O   0  0  0  0  0  0  0  0  0  0  0  0
    8.9260    9.5570  -28.6790 C   0  0  0  0  0  0  0  0  0  0  0  0
    7.4780    9.3980  -28.2400 C   0  0  0  0  0  0  0  0  0  0  0  0
    6.5580    9.9090  -28.8800 O   0  0  0  0  0  0  0  0  0  0  0  0
    7.2700    8.6690  -27.1430 N   0  0  0  0  0  0  0  0  0  0  0  0
   11.8020    9.0460  -33.4660 N   0  0  0  0  0  0  0  0  0  0  0  0
   12.3930    8.0240  -32.6020 C   0  0  2  0  0  0  0  0  0  0  0  0
   11.3070    7.3120  -31.8070 C   0  0  0  0  0  0  0  0  0  0  0  0
   10.4120    7.9540  -31.2710 O   0  0  0  0  0  0  0  0  0  0  0  0
   13.3910    8.6500  -31.6260 C   0  0  0  0  0  0  0  0  0  0  0  0
   13.7800    7.7140  -30.4830 C   0  0  0  0  0  0  0  0  0  0  0  0
   14.5450    8.4190  -29.3860 C   0  0  0  0  0  0  0  0  0  0  0  0
   13.7410    9.4310  -28.7100 N   0  0  0  0  0  0  0  0  0  0  0  0
   12.9180    9.1850  -27.6950 C   0  0  0  0  0  0  0  0  0  0  0  0
   12.7710    7.9500  -27.2320 N   0  0  0  0  0  0  0  0  0  0  0  0
   12.2350   10.1800  -27.1420 N   0  0  0  0  0  0  0  0  0  0  0  0
   11.4050    5.9880  -31.7100 N   0  0  0  0  0  0  0  0  0  0  0  0
   10.4200    5.1930  -30.9810 C   0  0  2  0  0  0  0  0  0  0  0  0
   10.4600    5.4730  -29.4860 C   0  0  0  0  0  0  0  0  0  0  0  0
   11.5370    5.5990  -28.9010 O   0  0  0  0  0  0  0  0  0  0  0  0
   10.6780    3.7040  -31.1990 C   0  0  0  0  0  0  0  0  0  0  0  0
   10.1740    3.2020  -32.5470 C   0  0  0  0  0  0  0  0  0  0  0  0
   10.2640    1.9800  -32.7740 O   0  0  0  0  0  0  0  0  0  0  0  0
    9.6830    4.0090  -33.3680 O   0  0  0  0  0  0  0  0  0  0  0  0
    9.2850    5.5310  -28.8660 N   0  0  0  0  0  0  0  0  0  0  0  0
    9.1870    5.6900  -27.4200 C   0  0  0  0  0  0  0  0  0  0  0  0
    8.6570    4.4290  -26.7500 C   0  0  0  0  0  0  0  0  0  0  0  0
    8.7410    3.3340  -27.3060 O   0  0  0  0  0  0  0  0  0  0  0  0
    8.0970    4.5780  -25.5560 N   0  0  0  0  0  0  0  0  0  0  0  0
    7.5200    3.4460  -24.8490 C   0  0  0  0  0  0  0  0  0  0  0  0
    8.3180    3.0240  -23.6320 C   0  0  0  0  0  0  0  0  0  0  0  0
    9.4530    3.4650  -23.4310 O   0  0  0  0  0  0  0  0  0  0  0  0
    7.7200    2.1660  -22.8100 N   0  0  0  0  0  0  0  0  0  0  0  0
    8.3580    1.7220  -21.5750 C   0  0  2  0  0  0  0  0  0  0  0  0
    9.4590    0.7090  -21.8690 C   0  0  0  0  0  0  0  0  0  0  0  0
    9.3910   -0.4450  -21.4470 O   0  0  0  0  0  0  0  0  0  0  0  0
    7.3270    1.1300  -20.6240 C   0  0  0  0  0  0  0  0  0  0  0  0
   10.4710    1.1560  -22.6020 N   0  0  0  0  0  0  0  0  0  0  0  0
   11.6180    0.3220  -22.9130 C   0  0  2  0  0  0  0  0  0  0  0  0
   12.7410    0.5520  -21.9170 C   0  0  0  0  0  0  0  0  0  0  0  0
   12.6450    1.4010  -21.0330 O   0  0  0  0  0  0  0  0  0  0  0  0
   12.1320    0.6370  -24.3240 C   0  0  0  0  0  0  0  0  0  0  0  0
   12.8050    2.0070  -24.4150 C   0  0  0  0  0  0  0  0  0  0  0  0
   13.1980    2.5870  -23.4030 O   0  0  0  0  0  0  0  0  0  0  0  0
   12.9430    2.5250  -25.6340 N   0  0  0  0  0  0  0  0  0  0  0  0
  2  1  1  6
  3  2  1  0
  4  3  2  0
  5  2  1  0
  6  5  1  0
  7  6  2  0
  8  6  1  0
 10  9  1  6
 11 10  1  0
 12 11  2  0
 13 10  1  0
 14 13  1  0
 13 15  1  1
 16 11  1  0
 17 16  1  0
 18 17  1  0
 19 18  2  0
 17 20  1  6
 21 20  1  0
 22 21  2  0
 23 21  1  0
 24 18  1  0
 25 24  1  0
 26 25  1  0
 27 26  2  0
 25 28  1  1
 29 28  1  0
 30 29  2  0
 31 29  1  0
 33 32  1  1
 34 33  1  0
 35 34  2  0
 36 33  1  0
 37 36  1  0
 38 37  1  0
 39 38  1  0
 40 39  1  0
 41 40  1  0
 42 40  2  0
 43 34  1  0
 44 43  1  0
 45 44  1  0
 46 45  2  0
 44 47  1  1
 48 47  1  0
 49 48  2  0
 50 48  1  0
 51 45  1  0
 52 51  1  0
 53 52  1  0
 54 53  2  0
 55 53  1  0
 56 55  1  0
 57 56  1  0
 58 57  2  0
 59 57  1  0
 60 59  1  0
 61 60  1  0
 62 61  2  0
 60 63  1  1
 64 61  1  0
 65 64  1  0
 66 65  1  0
 67 66  2  0
 65 68  1  6
 69 68  1  0
 70 69  2  0
 71 69  1  0
M  END
$$$$
