
     RDKit          3D

177172  0  0  0  0  0  0  0  0999 V2000
    9.2050   14.9170  -48.0960 N   0  0  0  0  0  0  0  0  0  0  0  0
    9.1210   14.1790  -46.8440 C   0  0  2  0  0  0  0  0  0  0  0  0
   10.3170   13.2320  -46.7490 C   0  0  0  0  0  0  0  0  0  0  0  0
   10.8720   12.8310  -47.7700 O   0  0  0  0  0  0  0  0  0  0  0  0
    7.8090   13.3850  -46.7490 C   0  0  2  0  0  0  0  0  0  0  0  0
    7.7490   12.4480  -47.8300 O   0  0  0  0  0  0  0  0  0  0  0  0
    6.6030   14.3140  -46.8170 C   0  0  0  0  0  0  0  0  0  0  0  0
    7.5360   12.5760  -29.6440 N   0  0  0  0  0  0  0  0  0  0  0  0
    6.5910   13.1990  -30.5760 C   0  0  2  0  0  0  0  0  0  0  0  0
    7.2220   14.3320  -31.3980 C   0  0  0  0  0  0  0  0  0  0  0  0
    6.5950   14.8450  -32.3150 O   0  0  0  0  0  0  0  0  0  0  0  0
    5.3750   13.7210  -29.8240 C   0  0  0  0  0  0  0  0  0  0  0  0
    8.4430   14.7400  -31.0560 N   0  0  0  0  0  0  0  0  0  0  0  0
    9.1090   15.8280  -31.7810 C   0  0  2  0  0  0  0  0  0  0  0  0
    9.9860   15.2900  -32.9000 C   0  0  0  0  0  0  0  0  0  0  0  0
   10.8270   14.4130  -32.6860 O   0  0  0  0  0  0  0  0  0  0  0  0
    9.9520   16.6710  -30.8230 C   0  0  0  0  0  0  0  0  0  0  0  0
    9.1340   17.5190  -29.8660 C   0  0  0  0  0  0  0  0  0  0  0  0
    8.1290   18.3800  -30.6220 C   0  0  0  0  0  0  0  0  0  0  0  0
    7.4790   19.4130  -29.7200 C   0  0  0  0  0  0  0  0  0  0  0  0
    6.5560   20.2950  -30.4850 N   0  0  0  0  0  0  0  0  0  0  0  0
    9.8020   15.8190  -34.1020 N   0  0  0  0  0  0  0  0  0  0  0  0
   10.6110   15.3820  -35.2250 C   0  0  2  0  0  0  0  0  0  0  0  0
   12.0710   15.7610  -34.9880 C   0  0  0  0  0  0  0  0  0  0  0  0
   12.3800   16.7920  -34.3840 O   0  0  0  0  0  0  0  0  0  0  0  0
   10.0910   15.9800  -36.5400 C   0  0  2  0  0  0  0  0  0  0  0  0
    8.7560   15.5110  -36.7610 O   0  0  0  0  0  0  0  0  0  0  0  0
   10.9700   15.5690  -37.7200 C   0  0  0  0  0  0  0  0  0  0  0  0
    6.1730    3.3660  -39.4740 N   0  0  0  0  0  0  0  0  0  0  0  0
    5.2890    2.3990  -38.8260 C   0  0  2  0  0  0  0  0  0  0  0  0
    3.8980    2.3760  -39.4460 C   0  0  0  0  0  0  0  0  0  0  0  0
    3.1350    1.4400  -39.2230 O   0  0  0  0  0  0  0  0  0  0  0  0
    5.1850    2.6930  -37.3230 C   0  0  0  0  0  0  0  0  0  0  0  0
    6.3960    2.3730  -36.6750 O   0  0  0  0  0  0  0  0  0  0  0  0
    3.5750    3.4050  -40.2190 N   0  0  0  0  0  0  0  0  0  0  0  0
    2.2900    3.4790  -40.8930 C   0  0  0  0  0  0  0  0  0  0  0  0
    2.0580    4.8520  -41.4990 C   0  0  0  0  0  0  0  0  0  0  0  0
    2.9540    5.6960  -41.5010 O   0  0  0  0  0  0  0  0  0  0  0  0
    0.8540    5.0730  -42.0220 N   0  0  0  0  0  0  0  0  0  0  0  0
    0.4920    6.3640  -42.5840 C   0  0  0  0  0  0  0  0  0  0  0  0
    0.2720    6.3230  -44.0890 C   0  0  0  0  0  0  0  0  0  0  0  0
    0.4080    5.2860  -44.7140 O   0  0  0  0  0  0  0  0  0  0  0  0
   -0.0960    7.4680  -44.6490 N   0  0  0  0  0  0  0  0  0  0  0  0
   -0.2870    7.6220  -46.0880 C   0  0  2  0  0  0  0  0  0  0  0  0
    1.0460    7.4990  -46.8210 C   0  0  0  0  0  0  0  0  0  0  0  0
    2.1070    7.6890  -46.2240 O   0  0  0  0  0  0  0  0  0  0  0  0
   -0.8770    8.9960  -46.3760 C   0  0  0  0  0  0  0  0  0  0  0  0
   -2.2880    9.1610  -45.8320 C   0  0  0  0  0  0  0  0  0  0  0  0
   -2.9210    8.1480  -45.4810 O   0  0  0  0  0  0  0  0  0  0  0  0
   -2.7690   10.3090  -45.7750 O   0  0  0  0  0  0  0  0  0  0  0  0
    0.9940    7.2110  -48.1210 N   0  0  0  0  0  0  0  0  0  0  0  0
    2.2120    7.0290  -48.9020 C   0  0  2  0  0  0  0  0  0  0  0  0
    3.1100    8.2810  -48.9020 C   0  0  0  0  0  0  0  0  0  0  0  0
    4.3340    8.1740  -49.0140 O   0  0  0  0  0  0  0  0  0  0  0  0
    1.8720    6.6180  -50.3400 C   0  0  0  0  0  0  0  0  0  0  0  0
    1.2060    5.2480  -50.4740 C   0  0  0  0  0  0  0  0  0  0  0  0
    0.7850    4.9960  -51.9090 C   0  0  0  0  0  0  0  0  0  0  0  0
    2.1380    4.1520  -50.0070 C   0  0  0  0  0  0  0  0  0  0  0  0
    2.5090    9.4620  -48.7830 N   0  0  0  0  0  0  0  0  0  0  0  0
    3.2850   10.7020  -48.7810 C   0  0  2  0  0  0  0  0  0  0  0  0
    4.3050   10.7250  -47.6540 C   0  0  0  0  0  0  0  0  0  0  0  0
    5.3090   11.4270  -47.7380 O   0  0  0  0  0  0  0  0  0  0  0  0
    2.3860   11.9380  -48.6570 C   0  0  0  0  0  0  0  0  0  0  0  0
    1.5910   12.2540  -49.9160 C   0  0  0  0  0  0  0  0  0  0  0  0
    0.3890   11.3510  -50.0640 C   0  0  0  0  0  0  0  0  0  0  0  0
    0.0830   10.6050  -49.0990 O   0  0  0  0  0  0  0  0  0  0  0  0
   -0.2480   11.3920  -51.1380 O   0  0  0  0  0  0  0  0  0  0  0  0
    4.0460    9.9700  -46.5930 N   0  0  0  0  0  0  0  0  0  0  0  0
    4.9620    9.9550  -45.4680 C   0  0  2  0  0  0  0  0  0  0  0  0
    5.7100    8.6160  -45.2940 C   0  0  0  0  0  0  0  0  0  0  0  0
    6.8150    8.5890  -44.7470 O   0  0  0  0  0  0  0  0  0  0  0  0
    4.2250   10.3440  -44.1600 C   0  0  2  0  0  0  0  0  0  0  0  0
    5.2300   10.8140  -43.1090 C   0  0  0  0  0  0  0  0  0  0  0  0
    3.3860    9.1740  -43.6420 C   0  0  0  0  0  0  0  0  0  0  0  0
    6.1010   11.9690  -43.5770 C   0  0  0  0  0  0  0  0  0  0  0  0
    8.6210   11.5270  -50.5600 N   0  0  0  0  0  0  0  0  0  0  0  0
    7.6630   12.1960  -51.4350 C   0  0  2  0  0  0  0  0  0  0  0  0
    8.1910   13.5690  -51.8110 C   0  0  0  0  0  0  0  0  0  0  0  0
    8.6220   14.3350  -50.9460 O   0  0  0  0  0  0  0  0  0  0  0  0
    6.3250   12.3220  -50.6950 C   0  0  0  0  0  0  0  0  0  0  0  0
    5.2810   13.1020  -51.4360 C   0  0  0  0  0  0  0  0  0  0  0  0
    4.8580   12.7700  -52.7040 N   0  0  0  0  0  0  0  0  0  0  0  0
    4.5510   14.1810  -51.0660 C   0  0  0  0  0  0  0  0  0  0  0  0
    3.9230   13.6200  -53.0910 C   0  0  0  0  0  0  0  0  0  0  0  0
    3.7120   14.4800  -52.1120 N   0  0  0  0  0  0  0  0  0  0  0  0
   -2.4480   12.9670  -51.5570 N   0  0  0  0  0  0  0  0  0  0  0  0
   -2.9250   13.6230  -50.3480 C   0  0  2  0  0  0  0  0  0  0  0  0
   -2.1440   14.9280  -50.1360 C   0  0  0  0  0  0  0  0  0  0  0  0
   -0.9220   14.9220  -50.0160 O   0  0  0  0  0  0  0  0  0  0  0  0
   -2.7790   12.6860  -49.1420 C   0  0  0  0  0  0  0  0  0  0  0  0
   -3.6640   11.4540  -49.2540 C   0  0  0  0  0  0  0  0  0  0  0  0
   -4.8860   11.5580  -49.3740 O   0  0  0  0  0  0  0  0  0  0  0  0
   -3.0460   10.2790  -49.2470 N   0  0  0  0  0  0  0  0  0  0  0  0
   -2.8550   16.0470  -50.1080 N   0  0  0  0  0  0  0  0  0  0  0  0
   -2.2130   17.3510  -50.1550 C   0  0  2  0  0  0  0  0  0  0  0  0
   -1.5980   17.7510  -48.8240 C   0  0  0  0  0  0  0  0  0  0  0  0
   -2.2540   17.7190  -47.7820 O   0  0  0  0  0  0  0  0  0  0  0  0
   -3.2170   18.4120  -50.6050 C   0  0  0  0  0  0  0  0  0  0  0  0
   -3.5950   18.2980  -52.0700 C   0  0  0  0  0  0  0  0  0  0  0  0
   -4.6210   19.6690  -52.6080 S   0  0  0  0  0  0  0  0  0  0  0  0
   -6.2080   19.2190  -51.9190 C   0  0  0  0  0  0  0  0  0  0  0  0
   -0.3320   18.1460  -48.8760 N   0  0  0  0  0  0  0  0  0  0  0  0
    0.4040   18.5080  -47.6740 C   0  0  2  0  0  0  0  0  0  0  0  0
   -0.1700   19.7480  -47.0050 C   0  0  0  0  0  0  0  0  0  0  0  0
    0.0140   19.9410  -45.8100 O   0  0  0  0  0  0  0  0  0  0  0  0
    1.8760   18.7310  -48.0010 C   0  0  0  0  0  0  0  0  0  0  0  0
    2.1300   19.8860  -48.9350 C   0  0  0  0  0  0  0  0  0  0  0  0
    2.2080   19.8390  -50.2990 C   0  0  0  0  0  0  0  0  0  0  0  0
    2.3500   21.2530  -48.5690 C   0  0  0  0  0  0  0  0  0  0  0  0
    2.4680   21.0890  -50.8000 N   0  0  0  0  0  0  0  0  0  0  0  0
    2.5560   21.9770  -49.7600 C   0  0  0  0  0  0  0  0  0  0  0  0
    2.3990   21.9340  -47.3480 C   0  0  0  0  0  0  0  0  0  0  0  0
    2.8070   23.3480  -49.7680 C   0  0  0  0  0  0  0  0  0  0  0  0
    2.6450   23.2980  -47.3570 C   0  0  0  0  0  0  0  0  0  0  0  0
    2.8450   23.9900  -48.5600 C   0  0  0  0  0  0  0  0  0  0  0  0
   -0.8670   20.5890  -47.7660 N   0  0  0  0  0  0  0  0  0  0  0  0
   -1.5110   21.7580  -47.1790 C   0  0  2  0  0  0  0  0  0  0  0  0
   -2.6140   21.3440  -46.2130 C   0  0  0  0  0  0  0  0  0  0  0  0
   -3.1520   22.1770  -45.4910 O   0  0  0  0  0  0  0  0  0  0  0  0
   -2.1160   22.6620  -48.2490 C   0  0  0  0  0  0  0  0  0  0  0  0
   -1.1460   23.1140  -49.3160 C   0  0  0  0  0  0  0  0  0  0  0  0
   -1.1580   22.1980  -50.5210 C   0  0  0  0  0  0  0  0  0  0  0  0
   -1.1440   20.9730  -50.3840 O   0  0  0  0  0  0  0  0  0  0  0  0
   -1.2040   22.7870  -51.7130 N   0  0  0  0  0  0  0  0  0  0  0  0
   -2.9570   20.0610  -46.2160 N   0  0  0  0  0  0  0  0  0  0  0  0
   -3.9900   19.5430  -45.3390 C   0  0  0  0  0  0  0  0  0  0  0  0
   -5.3770   19.7780  -45.9040 C   0  0  0  0  0  0  0  0  0  0  0  0
   -6.3660   19.7760  -45.1710 O   0  0  0  0  0  0  0  0  0  0  0  0
   -5.4480   19.9610  -47.2170 N   0  0  0  0  0  0  0  0  0  0  0  0
   -6.6850   20.3610  -47.8750 C   0  0  2  0  0  0  0  0  0  0  0  0
   -7.4780   19.1750  -48.4280 C   0  0  0  0  0  0  0  0  0  0  0  0
   -8.5900   19.3480  -48.9110 O   0  0  0  0  0  0  0  0  0  0  0  0
   -6.3850   21.3490  -49.0180 C   0  0  2  0  0  0  0  0  0  0  0  0
   -5.7090   22.4970  -48.4870 O   0  0  0  0  0  0  0  0  0  0  0  0
   -7.6660   21.8000  -49.7110 C   0  0  0  0  0  0  0  0  0  0  0  0
   11.7990   10.1760  -36.8330 N   0  0  0  0  0  0  0  0  0  0  0  0
   11.1030   10.0520  -35.5690 C   0  0  2  0  0  0  0  0  0  0  0  0
   11.7530    8.9110  -34.7880 C   0  0  0  0  0  0  0  0  0  0  0  0
   12.2210    7.9370  -35.3810 O   0  0  0  0  0  0  0  0  0  0  0  0
    9.6080    9.7570  -35.7820 C   0  0  2  0  0  0  0  0  0  0  0  0
    9.4510    8.4370  -36.3060 O   0  0  0  0  0  0  0  0  0  0  0  0
    8.9950   10.7580  -36.7540 C   0  0  0  0  0  0  0  0  0  0  0  0
   13.0260    6.0830  -37.4720 N   0  0  0  0  0  0  0  0  0  0  0  0
   12.2900    5.7920  -38.6930 C   0  0  2  0  0  0  0  0  0  0  0  0
   12.1760    7.0820  -39.4800 C   0  0  0  0  0  0  0  0  0  0  0  0
   11.9450    8.1390  -38.8950 O   0  0  0  0  0  0  0  0  0  0  0  0
   10.8820    5.2780  -38.3600 C   0  0  0  0  0  0  0  0  0  0  0  0
   10.8480    4.0630  -37.4380 C   0  0  0  0  0  0  0  0  0  0  0  0
    9.4170    3.7210  -37.0000 C   0  0  0  0  0  0  0  0  0  0  0  0
    9.4070    2.7010  -35.9460 N   0  0  0  0  0  0  0  0  0  0  0  0
    9.2540    1.3990  -36.1550 C   0  0  0  0  0  0  0  0  0  0  0  0
    9.0790    0.9340  -37.3800 N   0  0  0  0  0  0  0  0  0  0  0  0
    9.2680    0.5560  -35.1280 N   0  0  0  0  0  0  0  0  0  0  0  0
    8.3200   12.4750  -39.9800 N   0  0  0  0  0  0  0  0  0  0  0  0
    7.9720   13.8700  -39.7910 C   0  0  0  0  0  0  0  0  0  0  0  0
    6.6700   14.1710  -40.5130 C   0  0  0  0  0  0  0  0  0  0  0  0
    5.5960   13.7560  -40.0660 O   0  0  0  0  0  0  0  0  0  0  0  0
    6.7690   14.8860  -41.6330 N   0  0  0  0  0  0  0  0  0  0  0  0
    5.6140   15.1750  -42.4670 C   0  0  0  0  0  0  0  0  0  0  0  0
    5.0690   16.5850  -42.3070 C   0  0  0  0  0  0  0  0  0  0  0  0
    4.2470   17.0320  -43.1080 O   0  0  0  0  0  0  0  0  0  0  0  0
    5.5040   17.2840  -41.2630 N   0  0  0  0  0  0  0  0  0  0  0  0
    5.1460   18.6840  -41.0850 C   0  0  2  0  0  0  0  0  0  0  0  0
    6.0710   19.5230  -41.9640 C   0  0  0  0  0  0  0  0  0  0  0  0
    7.2660   19.6380  -41.6750 O   0  0  0  0  0  0  0  0  0  0  0  0
    5.3000   19.0900  -39.6210 C   0  0  0  0  0  0  0  0  0  0  0  0
    4.7280   20.4620  -39.3330 C   0  0  0  0  0  0  0  0  0  0  0  0
    4.5680   21.2900  -40.2370 O   0  0  0  0  0  0  0  0  0  0  0  0
    4.4150   20.7160  -38.0650 N   0  0  0  0  0  0  0  0  0  0  0  0
    5.5350   20.0880  -43.0440 N   0  0  0  0  0  0  0  0  0  0  0  0
    6.3770   20.8000  -43.9950 C   0  0  2  0  0  0  0  0  0  0  0  0
    7.0360   22.0220  -43.3470 C   0  0  0  0  0  0  0  0  0  0  0  0
    8.0780   22.4900  -43.8060 O   0  0  0  0  0  0  0  0  0  0  0  0
    5.5990   21.2320  -45.2560 C   0  0  2  0  0  0  0  0  0  0  0  0
    4.9400   20.0310  -45.9230 C   0  0  0  0  0  0  0  0  0  0  0  0
    6.5440   21.8890  -46.2520 C   0  0  0  0  0  0  0  0  0  0  0  0
    5.9070   18.9100  -46.2690 C   0  0  0  0  0  0  0  0  0  0  0  0
  2  1  1  6
  3  2  1  0
  4  3  2  0
  5  2  1  0
  6  5  1  0
  5  7  1  6
  9  8  1  0
 10  9  1  0
 11 10  2  0
  9 12  1  1
 13 10  1  0
 14 13  1  0
 15 14  1  0
 16 15  2  0
 14 17  1  1
 18 17  1  0
 19 18  1  0
 20 19  1  0
 21 20  1  0
 22 15  1  0
 23 22  1  1
 24 23  1  0
 25 24  2  0
 26 23  1  0
 27 26  1  0
 26 28  1  6
 30 29  1  6
 31 30  1  0
 32 31  2  0
 33 30  1  0
 34 33  1  0
 35 31  1  0
 36 35  1  0
 37 36  1  0
 38 37  2  0
 39 37  1  0
 40 39  1  0
 41 40  1  0
 42 41  2  0
 43 41  1  0
 44 43  1  0
 45 44  1  0
 46 45  2  0
 44 47  1  1
 48 47  1  0
 49 48  2  0
 50 48  1  0
 51 45  1  0
 52 51  1  0
 53 52  1  0
 54 53  2  0
 52 55  1  6
 56 55  1  0
 57 56  1  0
 58 56  1  0
 59 53  1  0
 60 59  1  0
 61 60  1  0
 62 61  2  0
 60 63  1  1
 64 63  1  0
 65 64  1  0
 66 65  2  0
 67 65  1  0
 68 61  1  0
 69 68  1  6
 70 69  1  0
 71 70  2  0
 72 69  1  0
 73 72  1  0
 72 74  1  1
 75 73  1  0
 77 76  1  1
 78 77  1  0
 79 78  2  0
 80 77  1  0
 81 80  1  0
 82 81  1  0
 83 81  2  0
 84 82  2  0
 85 84  1  0
 85 83  1  0
 87 86  1  6
 88 87  1  0
 89 88  2  0
 90 87  1  0
 91 90  1  0
 92 91  2  0
 93 91  1  0
 94 88  1  0
 95 94  1  0
 96 95  1  0
 97 96  2  0
 95 98  1  1
 99 98  1  0
100 99  1  0
101100  1  0
102 96  1  0
103102  1  0
104103  1  0
105104  2  0
103106  1  6
107106  1  0
108107  2  0
109107  1  0
110108  1  0
111110  1  0
111109  2  0
112109  1  0
113111  1  0
114112  2  0
115113  2  0
115114  1  0
116104  1  0
117116  1  0
118117  1  0
119118  2  0
117120  1  6
121120  1  0
122121  1  0
123122  2  0
124122  1  0
125118  1  0
126125  1  0
127126  1  0
128127  2  0
129127  1  0
130129  1  6
131130  1  0
132131  2  0
133130  1  0
134133  1  0
133135  1  1
137136  1  6
138137  1  0
139138  2  0
140137  1  0
141140  1  0
140142  1  6
144143  1  1
145144  1  0
146145  2  0
147144  1  0
148147  1  0
149148  1  0
150149  1  0
151150  1  0
152151  1  0
153151  2  0
155154  1  0
156155  1  0
157156  2  0
158156  1  0
159158  1  0
160159  1  0
161160  2  0
162160  1  0
163162  1  0
164163  1  0
165164  2  0
163166  1  1
167166  1  0
168167  2  0
169167  1  0
170164  1  0
171170  1  1
172171  1  0
173172  2  0
174171  1  0
175174  1  0
174176  1  6
177175  1  0
M  END
$$$$
