
     RDKit          3D

135134  0  0  0  0  0  0  0  0999 V2000
   49.5990   25.9900   94.9280 N   0  0  0  0  0  0  0  0  0  0  0  0
   50.0930   25.2460   93.7790 C   0  0  2  0  0  0  0  0  0  0  0  0
   50.2560   23.7750   94.1490 C   0  0  0  0  0  0  0  0  0  0  0  0
   51.2180   23.4090   94.8440 O   0  0  0  0  0  0  0  0  0  0  0  0
   51.4330   25.8320   93.3310 C   0  0  0  0  0  0  0  0  0  0  0  0
   51.4050   27.3240   92.9930 C   0  0  0  0  0  0  0  0  0  0  0  0
   52.8040   27.8470   92.6520 C   0  0  0  0  0  0  0  0  0  0  0  0
   50.4360   27.5850   91.8550 C   0  0  0  0  0  0  0  0  0  0  0  0
   49.3140   22.9380   93.7090 N   0  0  0  0  0  0  0  0  0  0  0  0
   49.3510   21.5180   94.0570 C   0  0  2  0  0  0  0  0  0  0  0  0
   50.1940   20.7550   93.0420 C   0  0  0  0  0  0  0  0  0  0  0  0
   50.1890   21.0880   91.8380 O   0  0  0  0  0  0  0  0  0  0  0  0
   47.9430   20.9370   94.1450 C   0  0  0  0  0  0  0  0  0  0  0  0
   47.0310   21.7160   95.0990 C   0  0  0  0  0  0  0  0  0  0  0  0
   47.6810   21.8790   96.4740 C   0  0  0  0  0  0  0  0  0  0  0  0
   47.9660   20.5840   97.0820 N   0  0  0  0  0  0  0  0  0  0  0  0
   47.1470   19.9570   97.9170 C   0  0  0  0  0  0  0  0  0  0  0  0
   45.9930   20.5150   98.2640 N   0  0  0  0  0  0  0  0  0  0  0  0
   47.4850   18.7740   98.4090 N   0  0  0  0  0  0  0  0  0  0  0  0
   50.9290   19.7500   93.5210 N   0  0  0  0  0  0  0  0  0  0  0  0
   51.9230   19.1200   92.6760 C   0  0  0  0  0  0  0  0  0  0  0  0
   52.3830   17.7030   92.9600 C   0  0  0  0  0  0  0  0  0  0  0  0
   52.6760   17.3260   94.1080 O   0  0  0  0  0  0  0  0  0  0  0  0
   52.4420   16.9250   91.8810 N   0  0  0  0  0  0  0  0  0  0  0  0
   53.0860   15.6270   91.8660 C   0  0  0  0  0  0  0  0  0  0  0  0
   54.4430   15.8480   91.2250 C   0  0  0  0  0  0  0  0  0  0  0  0
   54.5730   15.8340   89.9960 O   0  0  0  0  0  0  0  0  0  0  0  0
   55.4550   16.0600   92.0620 N   0  0  0  0  0  0  0  0  0  0  0  0
   56.8000   16.3240   91.5720 C   0  0  2  0  0  0  0  0  0  0  0  0
   57.8350   15.7410   92.5210 C   0  0  0  0  0  0  0  0  0  0  0  0
   57.5740   15.5430   93.7040 O   0  0  0  0  0  0  0  0  0  0  0  0
   57.0890   17.8060   91.3280 C   0  0  0  0  0  0  0  0  0  0  0  0
   57.0330   18.6670   92.5700 C   0  0  0  0  0  0  0  0  0  0  0  0
   57.4720   20.3910   92.2700 S   0  0  0  0  0  0  0  0  0  0  0  0
   59.2280   20.2510   91.9880 C   0  0  0  0  0  0  0  0  0  0  0  0
   59.0220   15.4760   91.9910 N   0  0  0  0  0  0  0  0  0  0  0  0
   60.0810   14.8730   92.7850 C   0  0  2  0  0  0  0  0  0  0  0  0
   61.3340   15.7430   92.7870 C   0  0  0  0  0  0  0  0  0  0  0  0
   61.7480   16.2510   91.7460 O   0  0  0  0  0  0  0  0  0  0  0  0
   60.3970   13.4670   92.2660 C   0  0  0  0  0  0  0  0  0  0  0  0
   60.8630   13.4250   90.8170 C   0  0  0  0  0  0  0  0  0  0  0  0
   60.9020   12.0190   90.2480 C   0  0  0  0  0  0  0  0  0  0  0  0
   60.0760   11.1740   90.5920 O   0  0  0  0  0  0  0  0  0  0  0  0
   61.8670   11.7620   89.3720 N   0  0  0  0  0  0  0  0  0  0  0  0
   57.3940   15.8100   96.6150 N   0  0  0  0  0  0  0  0  0  0  0  0
   56.8810   17.0220   97.2440 C   0  0  2  0  0  0  0  0  0  0  0  0
   55.8960   17.7820   96.3650 C   0  0  0  0  0  0  0  0  0  0  0  0
   55.6720   17.4340   95.2060 O   0  0  0  0  0  0  0  0  0  0  0  0
   58.0250   17.9840   97.6150 C   0  0  0  0  0  0  0  0  0  0  0  0
   58.8810   17.3960   98.7260 C   0  0  0  0  0  0  0  0  0  0  0  0
   58.8680   18.3010   96.3870 C   0  0  0  0  0  0  0  0  0  0  0  0
   55.3110   18.8280   96.9380 N   0  0  0  0  0  0  0  0  0  0  0  0
   54.4390   19.7360   96.2100 C   0  0  2  0  0  0  0  0  0  0  0  0
   54.9990   21.1460   96.3260 C   0  0  0  0  0  0  0  0  0  0  0  0
   55.6720   21.4670   97.3050 O   0  0  0  0  0  0  0  0  0  0  0  0
   53.0240   19.7050   96.7870 C   0  0  0  0  0  0  0  0  0  0  0  0
   52.3800   18.3340   96.8110 C   0  0  0  0  0  0  0  0  0  0  0  0
   50.9260   18.3900   97.2300 C   0  0  0  0  0  0  0  0  0  0  0  0
   50.6580   18.4000   98.4500 O   0  0  0  0  0  0  0  0  0  0  0  0
   50.0500   18.4310   96.3380 O   0  0  0  0  0  0  0  0  0  0  0  0
   54.7260   21.9950   95.3240 N   0  0  0  0  0  0  0  0  0  0  0  0
   55.1560   23.3950   95.3800 C   0  0  2  0  0  0  0  0  0  0  0  0
   54.6490   24.0870   96.6430 C   0  0  0  0  0  0  0  0  0  0  0  0
   55.2770   25.0380   97.1120 O   0  0  0  0  0  0  0  0  0  0  0  0
   54.4950   24.0090   94.1430 C   0  0  0  0  0  0  0  0  0  0  0  0
   54.3630   22.8710   93.1930 C   0  0  0  0  0  0  0  0  0  0  0  0
   54.0650   21.6690   94.0480 C   0  0  0  0  0  0  0  0  0  0  0  0
   58.3430   25.7130   98.8850 N   0  0  0  0  0  0  0  0  0  0  0  0
   59.2810   25.5040   97.7900 C   0  0  2  0  0  0  0  0  0  0  0  0
   58.9760   26.4650   96.6460 C   0  0  0  0  0  0  0  0  0  0  0  0
   59.8880   26.9620   95.9830 O   0  0  0  0  0  0  0  0  0  0  0  0
   59.2350   24.0520   97.3020 C   0  0  0  0  0  0  0  0  0  0  0  0
   59.6570   22.9750   98.3100 C   0  0  0  0  0  0  0  0  0  0  0  0
   59.3180   21.5770   97.8060 C   0  0  0  0  0  0  0  0  0  0  0  0
   61.1400   23.0880   98.6310 C   0  0  0  0  0  0  0  0  0  0  0  0
   57.6910   26.7340   96.4270 N   0  0  0  0  0  0  0  0  0  0  0  0
   57.2760   27.6420   95.3610 C   0  0  2  0  0  0  0  0  0  0  0  0
   57.7120   29.0770   95.6500 C   0  0  0  0  0  0  0  0  0  0  0  0
   58.0310   29.8310   94.7340 O   0  0  0  0  0  0  0  0  0  0  0  0
   55.7600   27.5730   95.1350 C   0  0  0  0  0  0  0  0  0  0  0  0
   55.0450   28.1310   96.2240 O   0  0  0  0  0  0  0  0  0  0  0  0
   57.7320   29.4430   96.9290 N   0  0  0  0  0  0  0  0  0  0  0  0
   58.1810   30.7680   97.3470 C   0  0  2  0  0  0  0  0  0  0  0  0
   59.6370   31.0130   96.9600 C   0  0  0  0  0  0  0  0  0  0  0  0
   60.0820   32.1580   96.8720 O   0  0  0  0  0  0  0  0  0  0  0  0
   58.0040   30.9410   98.8590 C   0  0  0  0  0  0  0  0  0  0  0  0
   56.5510   31.1240   99.2620 C   0  0  0  0  0  0  0  0  0  0  0  0
   56.2780   31.2230  100.4770 O   0  0  0  0  0  0  0  0  0  0  0  0
   55.6820   31.1840   98.3660 O   0  0  0  0  0  0  0  0  0  0  0  0
   60.3750   29.9310   96.7280 N   0  0  0  0  0  0  0  0  0  0  0  0
   61.7760   30.0240   96.3300 C   0  0  2  0  0  0  0  0  0  0  0  0
   61.9800   29.6550   94.8620 C   0  0  0  0  0  0  0  0  0  0  0  0
   63.0970   29.7150   94.3510 O   0  0  0  0  0  0  0  0  0  0  0  0
   62.6450   29.1210   97.2070 C   0  0  0  0  0  0  0  0  0  0  0  0
   62.7380   29.5500   98.6510 C   0  0  0  0  0  0  0  0  0  0  0  0
   61.9430   28.9600   99.6230 C   0  0  0  0  0  0  0  0  0  0  0  0
   63.6270   30.5420   99.0430 C   0  0  0  0  0  0  0  0  0  0  0  0
   62.0280   29.3480  100.9450 C   0  0  0  0  0  0  0  0  0  0  0  0
   63.7200   30.9370  100.3630 C   0  0  0  0  0  0  0  0  0  0  0  0
   62.9180   30.3360  101.3090 C   0  0  0  0  0  0  0  0  0  0  0  0
   63.0060   30.7280  102.6230 O   0  0  0  0  0  0  0  0  0  0  0  0
   60.8980   29.2640   94.1950 N   0  0  0  0  0  0  0  0  0  0  0  0
   60.9530   28.8710   92.7880 C   0  0  2  0  0  0  0  0  0  0  0  0
   61.8010   27.6260   92.5270 C   0  0  0  0  0  0  0  0  0  0  0  0
   62.4280   27.5080   91.4760 O   0  0  0  0  0  0  0  0  0  0  0  0
   61.4450   30.0320   91.9160 C   0  0  0  0  0  0  0  0  0  0  0  0
   60.4320   31.1580   91.8160 C   0  0  0  0  0  0  0  0  0  0  0  0
   59.2330   30.9210   91.6600 O   0  0  0  0  0  0  0  0  0  0  0  0
   60.9100   32.3930   91.9100 N   0  0  0  0  0  0  0  0  0  0  0  0
   61.8190   26.7000   93.4800 N   0  0  0  0  0  0  0  0  0  0  0  0
   62.5310   25.4400   93.2910 C   0  0  2  0  0  0  0  0  0  0  0  0
   61.8270   24.5980   92.2360 C   0  0  0  0  0  0  0  0  0  0  0  0
   60.6460   24.2820   92.3690 O   0  0  0  0  0  0  0  0  0  0  0  0
   62.6480   24.6360   94.6030 C   0  0  2  0  0  0  0  0  0  0  0  0
   63.9060   25.0430   95.3710 C   0  0  0  0  0  0  0  0  0  0  0  0
   62.7120   23.1450   94.3090 C   0  0  0  0  0  0  0  0  0  0  0  0
   63.9900   26.5170   95.6780 C   0  0  0  0  0  0  0  0  0  0  0  0
   62.5600   24.2380   91.1870 N   0  0  0  0  0  0  0  0  0  0  0  0
   61.9870   23.5110   90.0590 C   0  0  2  0  0  0  0  0  0  0  0  0
   62.0680   21.9980   90.2540 C   0  0  0  0  0  0  0  0  0  0  0  0
   62.7300   21.5180   91.1720 O   0  0  0  0  0  0  0  0  0  0  0  0
   62.6910   23.9080   88.7600 C   0  0  0  0  0  0  0  0  0  0  0  0
   62.4860   25.3600   88.3600 C   0  0  0  0  0  0  0  0  0  0  0  0
   63.4720   26.2940   89.0290 C   0  0  0  0  0  0  0  0  0  0  0  0
   64.3240   25.8570   89.8040 O   0  0  0  0  0  0  0  0  0  0  0  0
   63.3620   27.5850   88.7310 N   0  0  0  0  0  0  0  0  0  0  0  0
   61.3830   21.2520   89.3890 N   0  0  0  0  0  0  0  0  0  0  0  0
   61.3940   19.7940   89.4580 C   0  0  2  0  0  0  0  0  0  0  0  0
   62.8150   19.2490   89.4740 C   0  0  0  0  0  0  0  0  0  0  0  0
   63.7320   19.8650   88.9300 O   0  0  0  0  0  0  0  0  0  0  0  0
   60.6390   19.1790   88.2770 C   0  0  0  0  0  0  0  0  0  0  0  0
   59.1480   19.4610   88.2470 C   0  0  0  0  0  0  0  0  0  0  0  0
   58.4230   18.5310   87.2740 C   0  0  0  0  0  0  0  0  0  0  0  0
   58.9250   18.6810   85.8420 C   0  0  0  0  0  0  0  0  0  0  0  0
   60.2400   18.0190   85.6050 N   0  0  0  0  0  0  0  0  0  0  0  0
  2  1  1  1
  3  2  1  0
  4  3  2  0
  5  2  1  0
  6  5  1  0
  7  6  1  0
  8  6  1  0
  9  3  1  0
 10  9  1  0
 11 10  1  0
 12 11  2  0
 10 13  1  6
 14 13  1  0
 15 14  1  0
 16 15  1  0
 17 16  1  0
 18 17  1  0
 19 17  2  0
 20 11  1  0
 21 20  1  0
 22 21  1  0
 23 22  2  0
 24 22  1  0
 25 24  1  0
 26 25  1  0
 27 26  2  0
 28 26  1  0
 29 28  1  0
 30 29  1  0
 31 30  2  0
 29 32  1  1
 33 32  1  0
 34 33  1  0
 35 34  1  0
 36 30  1  0
 37 36  1  0
 38 37  1  0
 39 38  2  0
 37 40  1  6
 41 40  1  0
 42 41  1  0
 43 42  2  0
 44 42  1  0
 46 45  1  6
 47 46  1  0
 48 47  2  0
 49 46  1  0
 50 49  1  0
 51 49  1  0
 52 47  1  0
 53 52  1  0
 54 53  1  0
 55 54  2  0
 53 56  1  1
 57 56  1  0
 58 57  1  0
 59 58  2  0
 60 58  1  0
 61 54  1  0
 62 61  1  0
 62 63  1  1
 64 63  2  0
 65 62  1  0
 66 65  1  0
 67 66  1  0
 67 61  1  0
 69 68  1  1
 70 69  1  0
 71 70  2  0
 72 69  1  0
 73 72  1  0
 74 73  1  0
 75 73  1  0
 76 70  1  0
 77 76  1  0
 78 77  1  0
 79 78  2  0
 77 80  1  1
 81 80  1  0
 82 78  1  0
 83 82  1  0
 84 83  1  0
 85 84  2  0
 83 86  1  1
 87 86  1  0
 88 87  2  0
 89 87  1  0
 90 84  1  0
 91 90  1  0
 92 91  1  0
 93 92  2  0
 91 94  1  1
 95 94  1  0
 96 95  2  0
 97 95  1  0
 98 96  1  0
 99 97  2  0
100 99  1  0
100 98  2  0
101100  1  0
102 92  1  0
103102  1  0
104103  1  0
105104  2  0
103106  1  6
107106  1  0
108107  2  0
109107  1  0
110104  1  0
111110  1  1
112111  1  0
113112  2  0
114111  1  0
115114  1  0
114116  1  6
117115  1  0
118112  1  0
119118  1  0
120119  1  0
121120  2  0
119122  1  6
123122  1  0
124123  1  0
125124  2  0
126124  1  0
127120  1  0
128127  1  0
129128  1  0
130129  2  0
128131  1  6
132131  1  0
133132  1  0
134133  1  0
135134  1  0
M  END
$$$$
