
     RDKit          3D

126123  0  0  0  0  0  0  0  0999 V2000
    8.3190  -19.5930  -29.6330 N   0  0  0  0  0  0  0  0  0  0  0  0
    7.3000  -18.9280  -30.4330 C   0  0  2  0  0  0  0  0  0  0  0  0
    7.8610  -17.6910  -31.1310 C   0  0  0  0  0  0  0  0  0  0  0  0
    7.1320  -16.9800  -31.8230 O   0  0  0  0  0  0  0  0  0  0  0  0
    6.1070  -18.5550  -29.5740 C   0  0  0  0  0  0  0  0  0  0  0  0
    9.1530  -17.4320  -30.9380 N   0  0  0  0  0  0  0  0  0  0  0  0
    9.8150  -16.3080  -31.5950 C   0  0  2  0  0  0  0  0  0  0  0  0
   10.5650  -16.7640  -32.8370 C   0  0  0  0  0  0  0  0  0  0  0  0
   11.2480  -17.7920  -32.8230 O   0  0  0  0  0  0  0  0  0  0  0  0
   10.7790  -15.5910  -30.6460 C   0  0  0  0  0  0  0  0  0  0  0  0
   10.0980  -14.8340  -29.5200 C   0  0  0  0  0  0  0  0  0  0  0  0
    8.9740  -13.9720  -30.0560 C   0  0  0  0  0  0  0  0  0  0  0  0
    8.3760  -13.0970  -28.9730 C   0  0  0  0  0  0  0  0  0  0  0  0
    7.1220  -12.4580  -29.4590 N   0  0  0  0  0  0  0  0  0  0  0  0
   10.4400  -15.9790  -33.9030 N   0  0  0  0  0  0  0  0  0  0  0  0
   11.0440  -16.3020  -35.1840 C   0  0  2  0  0  0  0  0  0  0  0  0
   12.5580  -16.2390  -35.1140 C   0  0  0  0  0  0  0  0  0  0  0  0
   13.1190  -15.3000  -34.5460 O   0  0  0  0  0  0  0  0  0  0  0  0
   10.5830  -15.3170  -36.2820 C   0  0  2  0  0  0  0  0  0  0  0  0
    9.1530  -15.3320  -36.3850 O   0  0  0  0  0  0  0  0  0  0  0  0
   11.1960  -15.6900  -37.6240 C   0  0  0  0  0  0  0  0  0  0  0  0
    6.1790  -29.3610  -39.5300 N   0  0  0  0  0  0  0  0  0  0  0  0
    5.2750  -30.3040  -38.8800 C   0  0  2  0  0  0  0  0  0  0  0  0
    3.8420  -30.2110  -39.3940 C   0  0  0  0  0  0  0  0  0  0  0  0
    3.0080  -31.0570  -39.0740 O   0  0  0  0  0  0  0  0  0  0  0  0
    5.2810  -30.1030  -37.3560 C   0  0  0  0  0  0  0  0  0  0  0  0
    6.5620  -30.3450  -36.7990 O   0  0  0  0  0  0  0  0  0  0  0  0
    3.5430  -29.1730  -40.1650 N   0  0  0  0  0  0  0  0  0  0  0  0
    2.1950  -28.9900  -40.6740 C   0  0  0  0  0  0  0  0  0  0  0  0
    1.9390  -27.5970  -41.2150 C   0  0  0  0  0  0  0  0  0  0  0  0
    2.8560  -26.7780  -41.3000 O   0  0  0  0  0  0  0  0  0  0  0  0
    0.6880  -27.3270  -41.5850 N   0  0  0  0  0  0  0  0  0  0  0  0
    0.3060  -26.0180  -42.0820 C   0  0  0  0  0  0  0  0  0  0  0  0
    0.1890  -25.9650  -43.5930 C   0  0  0  0  0  0  0  0  0  0  0  0
    0.5180  -26.9310  -44.2800 O   0  0  0  0  0  0  0  0  0  0  0  0
   -0.2830  -24.8290  -44.1020 N   0  0  0  0  0  0  0  0  0  0  0  0
   -0.5080  -24.6290  -45.5330 C   0  0  2  0  0  0  0  0  0  0  0  0
    0.7510  -24.8240  -46.3740 C   0  0  0  0  0  0  0  0  0  0  0  0
    1.8700  -24.6880  -45.8810 O   0  0  0  0  0  0  0  0  0  0  0  0
   -1.0780  -23.2340  -45.7900 C   0  0  0  0  0  0  0  0  0  0  0  0
   -2.4590  -23.0470  -45.1930 C   0  0  0  0  0  0  0  0  0  0  0  0
   -3.1820  -24.0550  -45.0300 O   0  0  0  0  0  0  0  0  0  0  0  0
   -2.8230  -21.8870  -44.8930 O   0  0  0  0  0  0  0  0  0  0  0  0
    0.5590  -25.1320  -47.6530 N   0  0  0  0  0  0  0  0  0  0  0  0
    1.6830  -25.3160  -48.5700 C   0  0  2  0  0  0  0  0  0  0  0  0
    2.6010  -24.0960  -48.6510 C   0  0  0  0  0  0  0  0  0  0  0  0
    3.8080  -24.2390  -48.8280 O   0  0  0  0  0  0  0  0  0  0  0  0
    1.1920  -25.7170  -49.9610 C   0  0  0  0  0  0  0  0  0  0  0  0
    0.5630  -27.1120  -50.0470 C   0  0  0  0  0  0  0  0  0  0  0  0
    0.1420  -27.4320  -51.4790 C   0  0  0  0  0  0  0  0  0  0  0  0
    1.5100  -28.1740  -49.5100 C   0  0  0  0  0  0  0  0  0  0  0  0
    2.0360  -22.9010  -48.5140 N   0  0  0  0  0  0  0  0  0  0  0  0
    2.8530  -21.6890  -48.4730 C   0  0  2  0  0  0  0  0  0  0  0  0
    3.8620  -21.7570  -47.3320 C   0  0  0  0  0  0  0  0  0  0  0  0
    4.9070  -21.1030  -47.3660 O   0  0  0  0  0  0  0  0  0  0  0  0
    1.9860  -20.4340  -48.3120 C   0  0  0  0  0  0  0  0  0  0  0  0
    1.0880  -20.1190  -49.4990 C   0  0  0  0  0  0  0  0  0  0  0  0
   -0.1770  -20.9520  -49.5100 C   0  0  0  0  0  0  0  0  0  0  0  0
   -0.4840  -21.5760  -48.4710 O   0  0  0  0  0  0  0  0  0  0  0  0
   -0.8650  -20.9860  -50.5530 O   0  0  0  0  0  0  0  0  0  0  0  0
    3.5400  -22.5560  -46.3230 N   0  0  0  0  0  0  0  0  0  0  0  0
    4.3570  -22.6420  -45.1200 C   0  0  2  0  0  0  0  0  0  0  0  0
    5.2710  -23.8570  -45.1260 C   0  0  0  0  0  0  0  0  0  0  0  0
    6.4280  -23.7750  -44.7140 O   0  0  0  0  0  0  0  0  0  0  0  0
    3.4760  -22.6600  -43.8540 C   0  0  2  0  0  0  0  0  0  0  0  0
    2.9930  -21.2470  -43.5420 C   0  0  0  0  0  0  0  0  0  0  0  0
    4.2360  -23.2360  -42.6750 C   0  0  0  0  0  0  0  0  0  0  0  0
    2.3230  -21.1270  -42.2170 C   0  0  0  0  0  0  0  0  0  0  0  0
   -1.1740  -13.8260  -48.8620 N   0  0  0  0  0  0  0  0  0  0  0  0
   -0.4010  -13.4430  -47.6830 C   0  0  2  0  0  0  0  0  0  0  0  0
   -0.8960  -12.1360  -47.0700 C   0  0  0  0  0  0  0  0  0  0  0  0
   -0.8210  -11.9500  -45.8580 O   0  0  0  0  0  0  0  0  0  0  0  0
    1.0990  -13.3470  -47.9970 C   0  0  0  0  0  0  0  0  0  0  0  0
    1.4500  -12.3550  -49.0740 C   0  0  0  0  0  0  0  0  0  0  0  0
    1.6130  -12.6160  -50.4070 C   0  0  0  0  0  0  0  0  0  0  0  0
    1.6920  -10.9480  -48.9110 C   0  0  0  0  0  0  0  0  0  0  0  0
    1.9370  -11.4620  -51.0800 N   0  0  0  0  0  0  0  0  0  0  0  0
    1.9920  -10.4250  -50.1870 C   0  0  0  0  0  0  0  0  0  0  0  0
    1.6810  -10.0810  -47.8140 C   0  0  0  0  0  0  0  0  0  0  0  0
    2.2760   -9.0760  -50.3940 C   0  0  0  0  0  0  0  0  0  0  0  0
    1.9670   -8.7410  -48.0240 C   0  0  0  0  0  0  0  0  0  0  0  0
    2.2570   -8.2530  -49.3040 C   0  0  0  0  0  0  0  0  0  0  0  0
   -1.4070  -11.2390  -47.9090 N   0  0  0  0  0  0  0  0  0  0  0  0
   -1.8300   -9.9150  -47.4580 C   0  0  2  0  0  0  0  0  0  0  0  0
   -2.9000   -9.9900  -46.3760 C   0  0  0  0  0  0  0  0  0  0  0  0
   -3.1190   -9.0270  -45.6380 O   0  0  0  0  0  0  0  0  0  0  0  0
   -2.3520   -9.0700  -48.6260 C   0  0  0  0  0  0  0  0  0  0  0  0
   -1.4310   -9.0130  -49.8260 C   0  0  0  0  0  0  0  0  0  0  0  0
   -1.7380  -10.0980  -50.8400 C   0  0  0  0  0  0  0  0  0  0  0  0
   -1.7100  -11.2890  -50.5240 O   0  0  0  0  0  0  0  0  0  0  0  0
   -2.0480   -9.6880  -52.0650 N   0  0  0  0  0  0  0  0  0  0  0  0
   -3.5730  -11.1290  -46.2850 N   0  0  0  0  0  0  0  0  0  0  0  0
   -4.6390  -11.2740  -45.3190 C   0  0  0  0  0  0  0  0  0  0  0  0
   -5.2370  -12.6580  -45.3280 C   0  0  0  0  0  0  0  0  0  0  0  0
   -4.5450  -13.6460  -45.0750 O   0  0  0  0  0  0  0  0  0  0  0  0
   12.1400  -22.3470  -37.1700 N   0  0  0  0  0  0  0  0  0  0  0  0
   11.3510  -22.4700  -35.9520 C   0  0  2  0  0  0  0  0  0  0  0  0
   11.9100  -23.6030  -35.1040 C   0  0  0  0  0  0  0  0  0  0  0  0
   12.0490  -24.7300  -35.5800 O   0  0  0  0  0  0  0  0  0  0  0  0
    9.8770  -22.7740  -36.2560 C   0  0  2  0  0  0  0  0  0  0  0  0
    9.3110  -21.7020  -37.0180 O   0  0  0  0  0  0  0  0  0  0  0  0
    9.0930  -22.9390  -34.9570 C   0  0  0  0  0  0  0  0  0  0  0  0
    8.8950  -20.5250  -40.1100 N   0  0  0  0  0  0  0  0  0  0  0  0
    8.1690  -19.7630  -41.1040 C   0  0  0  0  0  0  0  0  0  0  0  0
    8.0620  -18.3090  -40.6960 C   0  0  0  0  0  0  0  0  0  0  0  0
    8.1120  -17.4080  -41.5400 O   0  0  0  0  0  0  0  0  0  0  0  0
    7.9240  -18.0800  -39.3940 N   0  0  0  0  0  0  0  0  0  0  0  0
    7.7220  -16.7400  -38.8850 C   0  0  0  0  0  0  0  0  0  0  0  0
    6.5940  -16.0310  -39.6110 C   0  0  0  0  0  0  0  0  0  0  0  0
    5.4720  -16.5350  -39.6900 O   0  0  0  0  0  0  0  0  0  0  0  0
    6.9080  -14.8680  -40.1690 N   0  0  0  0  0  0  0  0  0  0  0  0
    5.9010  -13.9880  -40.7460 C   0  0  2  0  0  0  0  0  0  0  0  0
    6.4970  -13.1340  -41.8630 C   0  0  0  0  0  0  0  0  0  0  0  0
    7.6910  -12.8420  -41.8550 O   0  0  0  0  0  0  0  0  0  0  0  0
    5.3370  -13.0900  -39.6460 C   0  0  0  0  0  0  0  0  0  0  0  0
    4.1020  -12.3560  -40.0750 C   0  0  0  0  0  0  0  0  0  0  0  0
    3.3600  -12.8220  -40.9370 O   0  0  0  0  0  0  0  0  0  0  0  0
    3.8700  -11.1960  -39.4800 N   0  0  0  0  0  0  0  0  0  0  0  0
    5.6730  -12.7260  -42.8210 N   0  0  0  0  0  0  0  0  0  0  0  0
    6.1750  -11.9670  -43.9730 C   0  0  2  0  0  0  0  0  0  0  0  0
    6.8660  -10.6560  -43.5630 C   0  0  0  0  0  0  0  0  0  0  0  0
    7.8520  -10.2470  -44.1730 O   0  0  0  0  0  0  0  0  0  0  0  0
    5.0660  -11.7100  -45.0250 C   0  0  2  0  0  0  0  0  0  0  0  0
    5.5680  -10.7730  -46.1230 C   0  0  0  0  0  0  0  0  0  0  0  0
    3.8060  -11.1610  -44.3600 C   0  0  0  0  0  0  0  0  0  0  0  0
    6.6750  -11.3740  -46.9730 C   0  0  0  0  0  0  0  0  0  0  0  0
  2  1  1  0
  3  2  1  0
  4  3  2  0
  2  5  1  1
  6  3  1  0
  7  6  1  0
  8  7  1  0
  9  8  2  0
  7 10  1  1
 11 10  1  0
 12 11  1  0
 13 12  1  0
 14 13  1  0
 15  8  1  0
 16 15  1  1
 17 16  1  0
 18 17  2  0
 19 16  1  0
 20 19  1  0
 19 21  1  6
 23 22  1  6
 24 23  1  0
 25 24  2  0
 26 23  1  0
 27 26  1  0
 28 24  1  0
 29 28  1  0
 30 29  1  0
 31 30  2  0
 32 30  1  0
 33 32  1  0
 34 33  1  0
 35 34  2  0
 36 34  1  0
 37 36  1  0
 38 37  1  0
 39 38  2  0
 37 40  1  1
 41 40  1  0
 42 41  2  0
 43 41  1  0
 44 38  1  0
 45 44  1  0
 46 45  1  0
 47 46  2  0
 45 48  1  6
 49 48  1  0
 50 49  1  0
 51 49  1  0
 52 46  1  0
 53 52  1  0
 54 53  1  0
 55 54  2  0
 53 56  1  1
 57 56  1  0
 58 57  1  0
 59 58  2  0
 60 58  1  0
 61 54  1  0
 62 61  1  6
 63 62  1  0
 64 63  2  0
 65 62  1  0
 66 65  1  0
 65 67  1  1
 68 66  1  0
 70 69  1  6
 71 70  1  0
 72 71  2  0
 73 70  1  0
 74 73  1  0
 75 74  2  0
 76 74  1  0
 77 75  1  0
 78 77  1  0
 78 76  2  0
 79 76  1  0
 80 78  1  0
 81 79  2  0
 82 80  2  0
 82 81  1  0
 83 71  1  0
 84 83  1  0
 85 84  1  0
 86 85  2  0
 84 87  1  6
 88 87  1  0
 89 88  1  0
 90 89  2  0
 91 89  1  0
 92 85  1  0
 93 92  1  0
 94 93  1  0
 95 94  2  0
 97 96  1  6
 98 97  1  0
 99 98  2  0
100 97  1  0
101100  1  0
100102  1  1
104103  1  0
105104  1  0
106105  2  0
107105  1  0
108107  1  0
109108  1  0
110109  2  0
111109  1  0
112111  1  0
113112  1  0
114113  2  0
112115  1  1
116115  1  0
117116  2  0
118116  1  0
119113  1  0
120119  1  1
121120  1  0
122121  2  0
123120  1  0
124123  1  0
123125  1  1
126124  1  0
M  END
$$$$
