
     RDKit          3D

 71 68  0  0  0  0  0  0  0  0999 V2000
   14.3170  -13.6820  -28.9310 N   0  0  0  0  0  0  0  0  0  0  0  0
   14.7310  -14.4550  -27.7680 C   0  0  2  0  0  0  0  0  0  0  0  0
   14.8510  -15.9450  -28.0760 C   0  0  0  0  0  0  0  0  0  0  0  0
   13.8590  -16.6680  -28.0550 O   0  0  0  0  0  0  0  0  0  0  0  0
   13.7540  -14.2390  -26.6120 C   0  0  0  0  0  0  0  0  0  0  0  0
   14.3690  -14.5550  -25.2650 C   0  0  0  0  0  0  0  0  0  0  0  0
   14.6200  -15.7200  -24.9410 O   0  0  0  0  0  0  0  0  0  0  0  0
   14.6150  -13.5170  -24.4670 N   0  0  0  0  0  0  0  0  0  0  0  0
   15.4590  -18.5260  -26.5940 N   0  0  0  0  0  0  0  0  0  0  0  0
   14.9510  -19.5240  -25.6590 C   0  0  2  0  0  0  0  0  0  0  0  0
   13.4300  -19.5990  -25.7290 C   0  0  0  0  0  0  0  0  0  0  0  0
   12.8070  -20.4520  -25.0950 O   0  0  0  0  0  0  0  0  0  0  0  0
   15.4170  -19.2490  -24.2180 C   0  0  2  0  0  0  0  0  0  0  0  0
   15.0150  -17.9310  -23.8280 O   0  0  0  0  0  0  0  0  0  0  0  0
   16.9320  -19.3570  -24.1250 C   0  0  0  0  0  0  0  0  0  0  0  0
   12.8440  -18.7080  -26.5220 N   0  0  0  0  0  0  0  0  0  0  0  0
   11.3960  -18.6610  -26.6950 C   0  0  2  0  0  0  0  0  0  0  0  0
   10.9730  -19.2290  -28.0530 C   0  0  0  0  0  0  0  0  0  0  0  0
   11.1540  -18.5970  -29.0990 O   0  0  0  0  0  0  0  0  0  0  0  0
   10.8900  -17.2310  -26.5200 C   0  0  0  0  0  0  0  0  0  0  0  0
    9.3880  -17.1340  -26.6020 C   0  0  0  0  0  0  0  0  0  0  0  0
    8.7220  -18.0430  -27.1000 O   0  0  0  0  0  0  0  0  0  0  0  0
    8.8390  -16.0230  -26.1170 N   0  0  0  0  0  0  0  0  0  0  0  0
   10.3930  -20.4230  -28.0220 N   0  0  0  0  0  0  0  0  0  0  0  0
   10.1280  -21.1780  -29.2370 C   0  0  2  0  0  0  0  0  0  0  0  0
    9.0630  -20.5640  -30.1480 C   0  0  0  0  0  0  0  0  0  0  0  0
    8.9220  -20.9660  -31.3000 O   0  0  0  0  0  0  0  0  0  0  0  0
    9.7920  -22.6340  -28.8990 C   0  0  0  0  0  0  0  0  0  0  0  0
    8.3750  -22.8100  -28.3950 C   0  0  0  0  0  0  0  0  0  0  0  0
    7.4270  -22.3010  -28.9950 O   0  0  0  0  0  0  0  0  0  0  0  0
    8.2190  -23.5470  -27.2860 N   0  0  0  0  0  0  0  0  0  0  0  0
   12.2260  -23.3060  -33.8460 N   0  0  0  0  0  0  0  0  0  0  0  0
   12.7720  -24.3170  -32.9420 C   0  0  2  0  0  0  0  0  0  0  0  0
   11.6700  -25.1360  -32.2740 C   0  0  0  0  0  0  0  0  0  0  0  0
   10.6780  -24.5820  -31.7870 O   0  0  0  0  0  0  0  0  0  0  0  0
   13.6670  -23.6720  -31.8820 C   0  0  0  0  0  0  0  0  0  0  0  0
   14.5330  -24.6710  -31.1290 C   0  0  0  0  0  0  0  0  0  0  0  0
   15.5180  -23.9760  -30.2040 C   0  0  0  0  0  0  0  0  0  0  0  0
   14.8460  -23.0650  -29.2780 N   0  0  0  0  0  0  0  0  0  0  0  0
   14.0470  -23.4580  -28.2910 C   0  0  0  0  0  0  0  0  0  0  0  0
   13.8180  -24.7490  -28.1000 N   0  0  0  0  0  0  0  0  0  0  0  0
   13.4700  -22.5610  -27.5030 N   0  0  0  0  0  0  0  0  0  0  0  0
   11.8420  -26.4550  -32.2600 N   0  0  0  0  0  0  0  0  0  0  0  0
   10.9120  -27.3370  -31.5600 C   0  0  2  0  0  0  0  0  0  0  0  0
   10.8900  -27.0300  -30.0650 C   0  0  0  0  0  0  0  0  0  0  0  0
   11.9330  -26.7770  -29.4560 O   0  0  0  0  0  0  0  0  0  0  0  0
   11.2800  -28.8040  -31.7870 C   0  0  0  0  0  0  0  0  0  0  0  0
   10.6230  -29.3880  -33.0270 C   0  0  0  0  0  0  0  0  0  0  0  0
   10.5680  -30.6310  -33.1370 O   0  0  0  0  0  0  0  0  0  0  0  0
   10.1500  -28.6080  -33.8830 O   0  0  0  0  0  0  0  0  0  0  0  0
    9.6980  -27.0510  -29.4780 N   0  0  0  0  0  0  0  0  0  0  0  0
    9.5460  -26.7610  -28.0640 C   0  0  0  0  0  0  0  0  0  0  0  0
    9.1580  -27.9670  -27.2300 C   0  0  0  0  0  0  0  0  0  0  0  0
    8.7430  -28.9990  -27.7640 O   0  0  0  0  0  0  0  0  0  0  0  0
    9.2980  -27.8290  -25.9120 N   0  0  0  0  0  0  0  0  0  0  0  0
    8.9340  -28.8750  -24.9680 C   0  0  0  0  0  0  0  0  0  0  0  0
    9.9710  -29.9730  -24.8250 C   0  0  0  0  0  0  0  0  0  0  0  0
    9.6260  -31.1530  -24.7650 O   0  0  0  0  0  0  0  0  0  0  0  0
   11.2410  -29.5860  -24.7510 N   0  0  0  0  0  0  0  0  0  0  0  0
   12.3440  -30.5470  -24.7790 C   0  0  2  0  0  0  0  0  0  0  0  0
   12.6670  -31.1800  -23.4240 C   0  0  0  0  0  0  0  0  0  0  0  0
   12.5030  -32.3880  -23.2430 O   0  0  0  0  0  0  0  0  0  0  0  0
   13.5930  -29.9010  -25.3700 C   0  0  0  0  0  0  0  0  0  0  0  0
   13.1290  -30.3600  -22.4840 N   0  0  0  0  0  0  0  0  0  0  0  0
   13.6330  -30.8470  -21.2000 C   0  0  2  0  0  0  0  0  0  0  0  0
   14.7740  -31.8410  -21.4040 C   0  0  0  0  0  0  0  0  0  0  0  0
   15.9120  -31.4430  -21.6580 O   0  0  0  0  0  0  0  0  0  0  0  0
   12.5150  -31.4710  -20.3590 C   0  0  0  0  0  0  0  0  0  0  0  0
   12.9550  -31.7760  -18.9350 C   0  0  0  0  0  0  0  0  0  0  0  0
   13.9720  -31.2650  -18.4630 O   0  0  0  0  0  0  0  0  0  0  0  0
   12.1860  -32.6080  -18.2420 N   0  0  0  0  0  0  0  0  0  0  0  0
  2  1  1  6
  3  2  1  0
  4  3  2  0
  5  2  1  0
  6  5  1  0
  7  6  2  0
  8  6  1  0
 10  9  1  6
 11 10  1  0
 12 11  2  0
 13 10  1  0
 14 13  1  0
 13 15  1  6
 16 11  1  0
 17 16  1  0
 18 17  1  0
 19 18  2  0
 17 20  1  6
 21 20  1  0
 22 21  2  0
 23 21  1  0
 24 18  1  0
 25 24  1  0
 26 25  1  0
 27 26  2  0
 25 28  1  1
 29 28  1  0
 30 29  2  0
 31 29  1  0
 33 32  1  1
 34 33  1  0
 35 34  2  0
 36 33  1  0
 37 36  1  0
 38 37  1  0
 39 38  1  0
 40 39  1  0
 41 40  1  0
 42 40  2  0
 43 34  1  0
 44 43  1  0
 45 44  1  0
 46 45  2  0
 44 47  1  1
 48 47  1  0
 49 48  2  0
 50 48  1  0
 51 45  1  0
 52 51  1  0
 53 52  1  0
 54 53  2  0
 55 53  1  0
 56 55  1  0
 57 56  1  0
 58 57  2  0
 59 57  1  0
 60 59  1  0
 61 60  1  0
 62 61  2  0
 60 63  1  1
 64 61  1  0
 65 64  1  0
 66 65  1  0
 67 66  2  0
 65 68  1  6
 69 68  1  0
 70 69  2  0
 71 69  1  0
M  END
$$$$
