
     RDKit          3D

140137  0  0  0  0  0  0  0  0999 V2000
  -20.9130   14.3090   53.9650 N   0  0  0  0  0  0  0  0  0  0  0  0
  -20.5400   14.1710   52.5430 C   0  0  2  0  0  0  0  0  0  0  0  0
  -21.6250   14.6880   51.6150 C   0  0  0  0  0  0  0  0  0  0  0  0
  -22.7880   14.7250   51.9960 O   0  0  0  0  0  0  0  0  0  0  0  0
  -20.3390   12.6620   52.3680 C   0  0  0  0  0  0  0  0  0  0  0  0
  -21.1870   12.0450   53.4120 C   0  0  0  0  0  0  0  0  0  0  0  0
  -21.1910   12.9980   54.5830 C   0  0  0  0  0  0  0  0  0  0  0  0
  -21.2430   15.0850   50.4110 N   0  0  0  0  0  0  0  0  0  0  0  0
  -22.1760   15.7320   49.4970 C   0  0  2  0  0  0  0  0  0  0  0  0
  -23.1640   14.7460   48.8810 C   0  0  0  0  0  0  0  0  0  0  0  0
  -22.8430   13.5810   48.7090 O   0  0  0  0  0  0  0  0  0  0  0  0
  -21.4240   16.4600   48.4040 C   0  0  0  0  0  0  0  0  0  0  0  0
  -24.3810   15.2160   48.5590 N   0  0  0  0  0  0  0  0  0  0  0  0
  -25.3400   14.4610   47.7490 C   0  0  2  0  0  0  0  0  0  0  0  0
  -24.9500   14.2580   46.2720 C   0  0  0  0  0  0  0  0  0  0  0  0
  -24.2180   15.0470   45.6980 O   0  0  0  0  0  0  0  0  0  0  0  0
  -26.6050   15.3230   47.8010 C   0  0  0  0  0  0  0  0  0  0  0  0
  -26.4470   16.1910   48.9360 C   0  0  0  0  0  0  0  0  0  0  0  0
  -25.0020   16.4090   49.1600 C   0  0  0  0  0  0  0  0  0  0  0  0
  -25.4810   13.1810   45.7050 N   0  0  0  0  0  0  0  0  0  0  0  0
  -25.4860   12.8720   44.2780 C   0  0  2  0  0  0  0  0  0  0  0  0
  -26.3580   13.8830   43.5650 C   0  0  0  0  0  0  0  0  0  0  0  0
  -27.2270   14.4890   44.1880 O   0  0  0  0  0  0  0  0  0  0  0  0
  -26.1010   11.4660   44.1190 C   0  0  0  0  0  0  0  0  0  0  0  0
  -26.4360   11.1280   42.7860 O   0  0  0  0  0  0  0  0  0  0  0  0
  -26.1690   14.0680   42.2640 N   0  0  0  0  0  0  0  0  0  0  0  0
  -27.0720   14.9710   41.5270 C   0  0  2  0  0  0  0  0  0  0  0  0
  -28.3730   14.2630   41.1170 C   0  0  0  0  0  0  0  0  0  0  0  0
  -29.3190   14.9010   40.6430 O   0  0  0  0  0  0  0  0  0  0  0  0
  -26.3700   15.6350   40.3210 C   0  0  0  0  0  0  0  0  0  0  0  0
  -25.2830   16.6600   40.7000 C   0  0  0  0  0  0  0  0  0  0  0  0
  -24.5620   17.1980   39.4790 C   0  0  0  0  0  0  0  0  0  0  0  0
  -25.8570   17.8080   41.5180 C   0  0  0  0  0  0  0  0  0  0  0  0
  -29.9170   12.3670   43.5230 N   0  0  0  0  0  0  0  0  0  0  0  0
  -30.6450   12.3450   44.7810 C   0  0  2  0  0  0  0  0  0  0  0  0
  -31.1860   13.7230   45.1370 C   0  0  0  0  0  0  0  0  0  0  0  0
  -32.2490   13.8270   45.7370 O   0  0  0  0  0  0  0  0  0  0  0  0
  -29.7710   11.8070   45.9100 C   0  0  2  0  0  0  0  0  0  0  0  0
  -28.6240   12.6450   46.0650 O   0  0  0  0  0  0  0  0  0  0  0  0
  -29.3090   10.3750   45.5960 C   0  0  0  0  0  0  0  0  0  0  0  0
  -23.0750   24.3730   35.5430 N   0  0  0  0  0  0  0  0  0  0  0  0
  -21.7510   24.4230   36.1290 C   0  0  2  0  0  0  0  0  0  0  0  0
  -21.2170   25.8480   35.9790 C   0  0  0  0  0  0  0  0  0  0  0  0
  -21.7900   26.6750   35.2710 O   0  0  0  0  0  0  0  0  0  0  0  0
  -20.7990   23.4190   35.4780 C   0  0  2  0  0  0  0  0  0  0  0  0
  -20.6270   23.7460   34.0940 O   0  0  0  0  0  0  0  0  0  0  0  0
  -21.3440   22.0120   35.6030 C   0  0  0  0  0  0  0  0  0  0  0  0
  -14.1040   27.8780   34.9000 N   0  0  0  0  0  0  0  0  0  0  0  0
  -13.7430   27.5280   36.2630 C   0  0  2  0  0  0  0  0  0  0  0  0
  -12.2540   27.6710   36.5290 C   0  0  0  0  0  0  0  0  0  0  0  0
  -11.8460   27.8910   37.6710 O   0  0  0  0  0  0  0  0  0  0  0  0
  -14.1650   26.0810   36.5150 C   0  0  0  0  0  0  0  0  0  0  0  0
  -14.1110   25.6140   37.9610 C   0  0  0  0  0  0  0  0  0  0  0  0
  -14.6410   23.9050   38.0800 S   0  0  0  0  0  0  0  0  0  0  0  0
  -16.3760   24.1410   37.6190 C   0  0  0  0  0  0  0  0  0  0  0  0
  -12.3200   23.6850   42.3410 N   0  0  0  0  0  0  0  0  0  0  0  0
  -11.9830   22.4960   41.5390 C   0  0  2  0  0  0  0  0  0  0  0  0
  -13.2220   21.8310   40.9340 C   0  0  0  0  0  0  0  0  0  0  0  0
  -13.1140   21.0180   40.0110 O   0  0  0  0  0  0  0  0  0  0  0  0
  -11.2610   21.4470   42.3980 C   0  0  0  0  0  0  0  0  0  0  0  0
   -9.7800   21.7180   42.6270 C   0  0  0  0  0  0  0  0  0  0  0  0
   -9.5240   22.7300   43.7320 C   0  0  0  0  0  0  0  0  0  0  0  0
  -10.0180   22.5850   44.8570 O   0  0  0  0  0  0  0  0  0  0  0  0
   -8.7470   23.7610   43.4200 N   0  0  0  0  0  0  0  0  0  0  0  0
  -14.3890   22.1460   41.4920 N   0  0  0  0  0  0  0  0  0  0  0  0
  -15.6580   21.5940   41.0440 C   0  0  2  0  0  0  0  0  0  0  0  0
  -16.7280   22.5250   41.5450 C   0  0  0  0  0  0  0  0  0  0  0  0
  -16.5900   23.0890   42.6290 O   0  0  0  0  0  0  0  0  0  0  0  0
  -15.8670   20.2000   41.6320 C   0  0  0  0  0  0  0  0  0  0  0  0
  -17.2120   19.7520   41.5000 O   0  0  0  0  0  0  0  0  0  0  0  0
  -17.7870   22.6870   40.7580 N   0  0  0  0  0  0  0  0  0  0  0  0
  -18.8810   23.6100   41.0800 C   0  0  2  0  0  0  0  0  0  0  0  0
  -20.1720   23.1780   40.3530 C   0  0  0  0  0  0  0  0  0  0  0  0
  -20.2380   23.1790   39.1170 O   0  0  0  0  0  0  0  0  0  0  0  0
  -18.4840   25.0450   40.7020 C   0  0  0  0  0  0  0  0  0  0  0  0
  -19.3390   26.1120   41.3380 C   0  0  0  0  0  0  0  0  0  0  0  0
  -18.9610   26.7310   42.5340 C   0  0  0  0  0  0  0  0  0  0  0  0
  -20.5340   26.5020   40.7500 C   0  0  0  0  0  0  0  0  0  0  0  0
  -19.7640   27.7070   43.1250 C   0  0  0  0  0  0  0  0  0  0  0  0
  -21.3340   27.4820   41.3250 C   0  0  0  0  0  0  0  0  0  0  0  0
  -20.9510   28.0780   42.5050 C   0  0  0  0  0  0  0  0  0  0  0  0
  -21.7760   29.0480   43.0370 O   0  0  0  0  0  0  0  0  0  0  0  0
  -21.1850   22.8010   41.1380 N   0  0  0  0  0  0  0  0  0  0  0  0
  -22.4820   22.3400   40.6180 C   0  0  2  0  0  0  0  0  0  0  0  0
  -23.6610   23.1450   41.1420 C   0  0  0  0  0  0  0  0  0  0  0  0
  -23.8790   23.2250   42.3490 O   0  0  0  0  0  0  0  0  0  0  0  0
  -22.6950   20.8820   40.9840 C   0  0  0  0  0  0  0  0  0  0  0  0
  -21.6850   19.9650   40.3350 C   0  0  0  0  0  0  0  0  0  0  0  0
  -20.8050   19.4380   41.0090 O   0  0  0  0  0  0  0  0  0  0  0  0
  -21.8210   19.7430   39.0340 N   0  0  0  0  0  0  0  0  0  0  0  0
  -22.9630   22.9450   45.0310 N   0  0  0  0  0  0  0  0  0  0  0  0
  -21.9890   21.9920   45.5300 C   0  0  2  0  0  0  0  0  0  0  0  0
  -20.6730   22.2790   44.8540 C   0  0  0  0  0  0  0  0  0  0  0  0
  -20.6350   22.5150   43.6460 O   0  0  0  0  0  0  0  0  0  0  0  0
  -22.4350   20.5640   45.2300 C   0  0  0  0  0  0  0  0  0  0  0  0
  -21.3930   19.4910   45.5920 C   0  0  0  0  0  0  0  0  0  0  0  0
  -21.7620   18.1190   45.0580 C   0  0  0  0  0  0  0  0  0  0  0  0
  -21.8370   18.0880   43.6040 N   0  0  0  0  0  0  0  0  0  0  0  0
  -22.1050   16.9960   42.9000 C   0  0  0  0  0  0  0  0  0  0  0  0
  -22.3220   15.8390   43.5170 N   0  0  0  0  0  0  0  0  0  0  0  0
  -22.1470   17.0500   41.5750 N   0  0  0  0  0  0  0  0  0  0  0  0
  -19.5940   22.2550   45.6330 N   0  0  0  0  0  0  0  0  0  0  0  0
  -18.2720   22.5820   45.1030 C   0  0  2  0  0  0  0  0  0  0  0  0
  -17.1420   21.8850   45.8300 C   0  0  0  0  0  0  0  0  0  0  0  0
  -17.2720   21.5260   46.9890 O   0  0  0  0  0  0  0  0  0  0  0  0
  -18.0400   24.1050   45.1580 C   0  0  0  0  0  0  0  0  0  0  0  0
  -17.8640   24.6860   46.5570 C   0  0  0  0  0  0  0  0  0  0  0  0
  -17.7850   26.2070   46.5180 C   0  0  0  0  0  0  0  0  0  0  0  0
  -17.7240   26.8220   47.9170 C   0  0  0  0  0  0  0  0  0  0  0  0
  -18.1750   28.2450   47.9030 N   0  0  0  0  0  0  0  0  0  0  0  0
  -16.0290   21.7080   45.1340 N   0  0  0  0  0  0  0  0  0  0  0  0
  -14.7850   21.3220   45.7750 C   0  0  2  0  0  0  0  0  0  0  0  0
  -13.8830   22.5500   45.7710 C   0  0  0  0  0  0  0  0  0  0  0  0
  -13.6430   23.1430   44.7160 O   0  0  0  0  0  0  0  0  0  0  0  0
  -14.0990   20.1620   45.0530 C   0  0  2  0  0  0  0  0  0  0  0  0
  -15.0440   19.1090   44.8320 O   0  0  0  0  0  0  0  0  0  0  0  0
  -12.9510   19.6270   45.8760 C   0  0  0  0  0  0  0  0  0  0  0  0
  -11.6870   20.1270   49.4970 N   0  0  0  0  0  0  0  0  0  0  0  0
  -12.7270   19.9260   50.5090 C   0  0  2  0  0  0  0  0  0  0  0  0
  -14.0730   19.9930   49.7970 C   0  0  0  0  0  0  0  0  0  0  0  0
  -14.2480   20.8110   48.8950 O   0  0  0  0  0  0  0  0  0  0  0  0
  -12.6650   21.0110   51.5990 C   0  0  0  0  0  0  0  0  0  0  0  0
  -11.4910   20.9040   52.5570 C   0  0  0  0  0  0  0  0  0  0  0  0
  -15.0160   19.1490   50.2100 N   0  0  0  0  0  0  0  0  0  0  0  0
  -16.3100   19.0110   49.5340 C   0  0  2  0  0  0  0  0  0  0  0  0
  -17.3930   19.8020   50.2670 C   0  0  0  0  0  0  0  0  0  0  0  0
  -17.7440   19.4730   51.3940 O   0  0  0  0  0  0  0  0  0  0  0  0
  -16.6960   17.5270   49.4480 C   0  0  0  0  0  0  0  0  0  0  0  0
  -17.9020   20.8540   49.6240 N   0  0  0  0  0  0  0  0  0  0  0  0
  -18.9320   21.7320   50.2160 C   0  0  2  0  0  0  0  0  0  0  0  0
  -20.2410   21.6640   49.4520 C   0  0  0  0  0  0  0  0  0  0  0  0
  -20.2650   21.4880   48.2280 O   0  0  0  0  0  0  0  0  0  0  0  0
  -18.5040   23.2060   50.2080 C   0  0  0  0  0  0  0  0  0  0  0  0
  -17.2760   23.5430   51.0080 C   0  0  0  0  0  0  0  0  0  0  0  0
  -16.0180   23.4620   50.4370 C   0  0  0  0  0  0  0  0  0  0  0  0
  -17.3700   23.9740   52.3270 C   0  0  0  0  0  0  0  0  0  0  0  0
  -14.8860   23.7850   51.1470 C   0  0  0  0  0  0  0  0  0  0  0  0
  -16.2320   24.3070   53.0510 C   0  0  0  0  0  0  0  0  0  0  0  0
  -14.9930   24.2060   52.4450 C   0  0  0  0  0  0  0  0  0  0  0  0
  -13.8440   24.5130   53.1230 O   0  0  0  0  0  0  0  0  0  0  0  0
  2  1  1  0
  2  3  1  6
  4  3  2  0
  5  2  1  0
  6  5  1  0
  7  6  1  0
  7  1  1  0
  8  3  1  0
  9  8  1  0
 10  9  1  0
 11 10  2  0
  9 12  1  6
 13 10  1  0
 14 13  1  0
 14 15  1  6
 16 15  2  0
 17 14  1  0
 18 17  1  0
 19 18  1  0
 19 13  1  0
 20 15  1  0
 21 20  1  0
 22 21  1  0
 23 22  2  0
 21 24  1  1
 25 24  1  0
 26 22  1  0
 27 26  1  0
 28 27  1  0
 29 28  2  0
 27 30  1  6
 31 30  1  0
 32 31  1  0
 33 31  1  0
 35 34  1  6
 36 35  1  0
 37 36  2  0
 38 35  1  0
 39 38  1  0
 38 40  1  6
 42 41  1  6
 43 42  1  0
 44 43  2  0
 45 42  1  0
 46 45  1  0
 45 47  1  6
 49 48  1  6
 50 49  1  0
 51 50  2  0
 52 49  1  0
 53 52  1  0
 54 53  1  0
 55 54  1  0
 57 56  1  1
 58 57  1  0
 59 58  2  0
 60 57  1  0
 61 60  1  0
 62 61  1  0
 63 62  2  0
 64 62  1  0
 65 58  1  0
 66 65  1  0
 67 66  1  0
 68 67  2  0
 66 69  1  1
 70 69  1  0
 71 67  1  0
 72 71  1  0
 73 72  1  0
 74 73  2  0
 72 75  1  6
 76 75  1  0
 77 76  2  0
 78 76  1  0
 79 77  1  0
 80 78  2  0
 81 80  1  0
 81 79  2  0
 82 81  1  0
 83 73  1  0
 84 83  1  0
 85 84  1  0
 86 85  2  0
 84 87  1  1
 88 87  1  0
 89 88  2  0
 90 88  1  0
 92 91  1  6
 93 92  1  0
 94 93  2  0
 95 92  1  0
 96 95  1  0
 97 96  1  0
 98 97  1  0
 99 98  1  0
100 99  1  0
101 99  2  0
102 93  1  0
103102  1  0
104103  1  0
105104  2  0
103106  1  1
107106  1  0
108107  1  0
109108  1  0
110109  1  0
111104  1  0
112111  1  6
113112  1  0
114113  2  0
115112  1  0
116115  1  0
115117  1  1
119118  1  6
120119  1  0
121120  2  0
122119  1  0
123122  1  0
124120  1  0
125124  1  0
126125  1  0
127126  2  0
125128  1  1
129126  1  0
130129  1  0
131130  1  0
132131  2  0
130133  1  6
134133  1  0
135134  2  0
136134  1  0
137135  1  0
138136  2  0
139138  1  0
139137  2  0
140139  1  0
M  END
$$$$
