
     RDKit          3D

 97 96  0  0  0  0  0  0  0  0999 V2000
   61.1330   43.5230    7.8430 N   0  0  0  0  0  0  0  0  0  0  0  0
   61.9130   42.7900    6.8520 C   0  0  0  0  0  0  0  0  0  0  0  0
   61.0770   42.1520    5.7630 C   0  0  0  0  0  0  0  0  0  0  0  0
   60.1400   42.7740    5.2530 O   0  0  0  0  0  0  0  0  0  0  0  0
   61.4300   40.9060    5.3870 N   0  0  0  0  0  0  0  0  0  0  0  0
   60.7530   40.1260    4.3430 C   0  0  2  0  0  0  0  0  0  0  0  0
   60.2840   38.7810    4.9320 C   0  0  0  0  0  0  0  0  0  0  0  0
   61.0970   38.0490    5.5010 O   0  0  0  0  0  0  0  0  0  0  0  0
   61.6560   39.9520    3.0830 C   0  0  0  0  0  0  0  0  0  0  0  0
   61.0310   39.0050    2.0640 C   0  0  0  0  0  0  0  0  0  0  0  0
   61.9690   41.2980    2.4300 C   0  0  0  0  0  0  0  0  0  0  0  0
   58.9770   38.4690    4.8010 N   0  0  0  0  0  0  0  0  0  0  0  0
   58.3870   37.2240    5.3170 C   0  0  2  0  0  0  0  0  0  0  0  0
   58.4070   36.1100    4.2640 C   0  0  0  0  0  0  0  0  0  0  0  0
   58.2270   36.3840    3.0760 O   0  0  0  0  0  0  0  0  0  0  0  0
   56.9730   37.4460    5.9040 C   0  0  2  0  0  0  0  0  0  0  0  0
   56.0120   37.5610    4.8540 O   0  0  0  0  0  0  0  0  0  0  0  0
   56.8890   38.6500    6.8400 C   0  0  0  0  0  0  0  0  0  0  0  0
   58.6120   34.8550    4.7090 N   0  0  0  0  0  0  0  0  0  0  0  0
   58.6600   33.6730    3.8440 C   0  0  2  0  0  0  0  0  0  0  0  0
   57.8970   32.4970    4.4550 C   0  0  0  0  0  0  0  0  0  0  0  0
   58.0170   32.2440    5.6550 O   0  0  0  0  0  0  0  0  0  0  0  0
   60.1040   33.2790    3.5800 C   0  0  0  0  0  0  0  0  0  0  0  0
   57.1220   31.7760    3.6230 N   0  0  0  0  0  0  0  0  0  0  0  0
   56.3240   30.6210    4.0500 C   0  0  2  0  0  0  0  0  0  0  0  0
   57.0010   29.2920    3.7090 C   0  0  0  0  0  0  0  0  0  0  0  0
   57.4860   29.1140    2.5890 O   0  0  0  0  0  0  0  0  0  0  0  0
   54.9040   30.6760    3.4620 C   0  0  0  0  0  0  0  0  0  0  0  0
   54.0290   31.7380    4.0850 C   0  0  0  0  0  0  0  0  0  0  0  0
   52.4730   31.9410    3.1870 S   0  0  0  0  0  0  0  0  0  0  0  0
   51.6760   33.1630    4.2080 C   0  0  0  0  0  0  0  0  0  0  0  0
   57.0360   28.3660    4.6880 N   0  0  0  0  0  0  0  0  0  0  0  0
   57.6350   27.0320    4.5610 C   0  0  2  0  0  0  0  0  0  0  0  0
   56.6220   25.9640    4.9940 C   0  0  0  0  0  0  0  0  0  0  0  0
   56.0870   26.0300    6.1010 O   0  0  0  0  0  0  0  0  0  0  0  0
   59.0040   26.9360    5.3140 C   0  0  2  0  0  0  0  0  0  0  0  0
   60.1080   27.7310    4.5860 C   0  0  0  0  0  0  0  0  0  0  0  0
   59.4580   25.4860    5.5350 C   0  0  0  0  0  0  0  0  0  0  0  0
   60.3720   29.1040    5.1530 C   0  0  0  0  0  0  0  0  0  0  0  0
   56.3630   24.9910    4.1070 N   0  0  0  0  0  0  0  0  0  0  0  0
   55.4270   23.8810    4.3130 C   0  0  2  0  0  0  0  0  0  0  0  0
   56.1530   22.5760    3.9130 C   0  0  0  0  0  0  0  0  0  0  0  0
   56.9000   22.6180    2.9380 O   0  0  0  0  0  0  0  0  0  0  0  0
   54.1590   24.1260    3.4560 C   0  0  2  0  0  0  0  0  0  0  0  0
   53.7440   25.4880    3.5890 O   0  0  0  0  0  0  0  0  0  0  0  0
   53.0000   23.2060    3.8180 C   0  0  0  0  0  0  0  0  0  0  0  0
   56.2500   22.1590    0.1450 N   0  0  0  0  0  0  0  0  0  0  0  0
   57.1660   23.0800   -0.5360 C   0  0  2  0  0  0  0  0  0  0  0  0
   58.2150   23.5810    0.4880 C   0  0  0  0  0  0  0  0  0  0  0  0
   58.0510   24.6690    1.0520 O   0  0  0  0  0  0  0  0  0  0  0  0
   56.3960   24.2410   -1.1610 C   0  0  0  0  0  0  0  0  0  0  0  0
   55.4340   23.7850   -2.0980 O   0  0  0  0  0  0  0  0  0  0  0  0
   59.2510   22.7630    0.8150 N   0  0  0  0  0  0  0  0  0  0  0  0
   60.2200   23.1870    1.8420 C   0  0  2  0  0  0  0  0  0  0  0  0
   61.2100   24.2670    1.4100 C   0  0  0  0  0  0  0  0  0  0  0  0
   61.5450   25.1330    2.2200 O   0  0  0  0  0  0  0  0  0  0  0  0
   60.9050   21.8820    2.2470 C   0  0  0  0  0  0  0  0  0  0  0  0
   60.8030   21.0120    1.0560 C   0  0  0  0  0  0  0  0  0  0  0  0
   59.5800   21.4220    0.2840 C   0  0  0  0  0  0  0  0  0  0  0  0
   61.6800   24.2160    0.1510 N   0  0  0  0  0  0  0  0  0  0  0  0
   62.6240   25.1900   -0.3930 C   0  0  2  0  0  0  0  0  0  0  0  0
   61.8690   26.3600   -1.0190 C   0  0  0  0  0  0  0  0  0  0  0  0
   60.9840   26.1500   -1.8530 O   0  0  0  0  0  0  0  0  0  0  0  0
   63.5510   24.5330   -1.4120 C   0  0  0  0  0  0  0  0  0  0  0  0
   64.5660   25.4250   -1.8420 O   0  0  0  0  0  0  0  0  0  0  0  0
   62.2050   27.5900   -0.5940 N   0  0  0  0  0  0  0  0  0  0  0  0
   61.5780   28.8140   -1.0940 C   0  0  2  0  0  0  0  0  0  0  0  0
   62.6140   29.9010   -1.4320 C   0  0  0  0  0  0  0  0  0  0  0  0
   63.4920   30.1990   -0.6200 O   0  0  0  0  0  0  0  0  0  0  0  0
   60.3850   29.2980   -0.2120 C   0  0  0  0  0  0  0  0  0  0  0  0
   60.8320   29.7590    1.1780 C   0  0  0  0  0  0  0  0  0  0  0  0
   59.5590   30.3730   -0.9140 C   0  0  0  0  0  0  0  0  0  0  0  0
   62.5260   30.4500   -2.6550 N   0  0  0  0  0  0  0  0  0  0  0  0
   63.4180   31.4970   -3.1490 C   0  0  2  0  0  0  0  0  0  0  0  0
   62.9400   32.8440   -2.6030 C   0  0  0  0  0  0  0  0  0  0  0  0
   61.8680   33.3220   -2.9830 O   0  0  0  0  0  0  0  0  0  0  0  0
   63.4460   31.4840   -4.6840 C   0  0  0  0  0  0  0  0  0  0  0  0
   64.7250   32.0390   -5.2830 C   0  0  0  0  0  0  0  0  0  0  0  0
   65.0490   31.5500   -6.6820 C   0  0  0  0  0  0  0  0  0  0  0  0
   64.1060   31.2820   -7.4620 O   0  0  0  0  0  0  0  0  0  0  0  0
   66.2550   31.4490   -7.0050 O   0  0  0  0  0  0  0  0  0  0  0  0
   63.7170   33.4270   -1.6750 N   0  0  0  0  0  0  0  0  0  0  0  0
   63.3850   34.6920   -1.0120 C   0  0  2  0  0  0  0  0  0  0  0  0
   64.1680   35.8580   -1.6200 C   0  0  0  0  0  0  0  0  0  0  0  0
   65.3990   35.8250   -1.6520 O   0  0  0  0  0  0  0  0  0  0  0  0
   63.5600   34.6090    0.5320 C   0  0  0  0  0  0  0  0  0  0  0  0
   62.9830   35.8400    1.2250 C   0  0  0  0  0  0  0  0  0  0  0  0
   62.9390   33.3350    1.1000 C   0  0  0  0  0  0  0  0  0  0  0  0
   63.4420   36.8870   -2.0910 N   0  0  0  0  0  0  0  0  0  0  0  0
   64.0120   38.0930   -2.6890 C   0  0  2  0  0  0  0  0  0  0  0  0
   64.1720   39.1980   -1.6530 C   0  0  0  0  0  0  0  0  0  0  0  0
   63.2210   39.5140   -0.9320 O   0  0  0  0  0  0  0  0  0  0  0  0
   63.1370   38.5940   -3.8490 C   0  0  0  0  0  0  0  0  0  0  0  0
   63.5330   38.0530   -5.2110 C   0  0  0  0  0  0  0  0  0  0  0  0
   62.7930   38.7930   -6.3190 C   0  0  0  0  0  0  0  0  0  0  0  0
   63.1040   38.2630   -7.6980 C   0  0  0  0  0  0  0  0  0  0  0  0
   64.4780   38.6220   -8.1420 N   0  0  0  0  0  0  0  0  0  0  0  0
  2  1  1  0
  3  2  1  0
  4  3  2  0
  5  3  1  0
  6  5  1  1
  7  6  1  0
  8  7  2  0
  9  6  1  0
 10  9  1  0
 11  9  1  0
 12  7  1  0
 13 12  1  6
 14 13  1  0
 15 14  2  0
 16 13  1  0
 17 16  1  0
 16 18  1  6
 19 14  1  0
 20 19  1  0
 21 20  1  0
 22 21  2  0
 20 23  1  1
 24 21  1  0
 25 24  1  0
 26 25  1  0
 27 26  2  0
 25 28  1  6
 29 28  1  0
 30 29  1  0
 31 30  1  0
 32 26  1  0
 33 32  1  1
 34 33  1  0
 35 34  2  0
 36 33  1  0
 37 36  1  0
 36 38  1  6
 39 37  1  0
 40 34  1  0
 41 40  1  6
 42 41  1  0
 43 42  2  0
 44 41  1  0
 45 44  1  0
 44 46  1  1
 48 47  1  1
 49 48  1  0
 50 49  2  0
 51 48  1  0
 52 51  1  0
 53 49  1  0
 54 53  1  0
 54 55  1  6
 56 55  2  0
 57 54  1  0
 58 57  1  0
 59 53  1  0
 59 58  1  0
 60 55  1  0
 61 60  1  0
 62 61  1  0
 63 62  2  0
 61 64  1  6
 65 64  1  0
 66 62  1  0
 67 66  1  1
 68 67  1  0
 69 68  2  0
 70 67  1  0
 71 70  1  0
 72 70  1  0
 73 68  1  0
 74 73  1  0
 75 74  1  0
 76 75  2  0
 74 77  1  6
 78 77  1  0
 79 78  1  0
 80 79  2  0
 81 79  1  0
 82 75  1  0
 83 82  1  6
 84 83  1  0
 85 84  2  0
 86 83  1  0
 87 86  1  0
 88 86  1  0
 89 84  1  0
 90 89  1  0
 91 90  1  0
 92 91  2  0
 90 93  1  6
 94 93  1  0
 95 94  1  0
 96 95  1  0
 97 96  1  0
M  END
$$$$
