
     RDKit          3D

 97 96  0  0  0  0  0  0  0  0999 V2000
  -35.8930   22.9670  -18.4760 N   0  0  0  0  0  0  0  0  0  0  0  0
  -35.2810   23.0320  -19.7960 C   0  0  0  0  0  0  0  0  0  0  0  0
  -34.2740   21.9450  -20.1050 C   0  0  0  0  0  0  0  0  0  0  0  0
  -33.8620   21.1970  -19.2150 O   0  0  0  0  0  0  0  0  0  0  0  0
  -33.8720   21.8640  -21.3860 N   0  0  0  0  0  0  0  0  0  0  0  0
  -32.8780   20.9120  -21.8860 C   0  0  2  0  0  0  0  0  0  0  0  0
  -31.5520   21.6660  -22.0660 C   0  0  0  0  0  0  0  0  0  0  0  0
  -31.5220   22.7270  -22.6930 O   0  0  0  0  0  0  0  0  0  0  0  0
  -33.3470   20.1780  -23.1760 C   0  0  0  0  0  0  0  0  0  0  0  0
  -32.2590   19.2580  -23.7260 C   0  0  0  0  0  0  0  0  0  0  0  0
  -34.6320   19.3910  -22.9260 C   0  0  0  0  0  0  0  0  0  0  0  0
  -30.4720   21.1290  -21.4820 N   0  0  0  0  0  0  0  0  0  0  0  0
  -29.1360   21.7240  -21.5110 C   0  0  2  0  0  0  0  0  0  0  0  0
  -28.3100   21.2120  -22.6980 C   0  0  0  0  0  0  0  0  0  0  0  0
  -28.3030   20.0120  -22.9700 O   0  0  0  0  0  0  0  0  0  0  0  0
  -28.4560   21.5090  -20.1460 C   0  0  2  0  0  0  0  0  0  0  0  0
  -29.3040   22.0300  -19.1210 O   0  0  0  0  0  0  0  0  0  0  0  0
  -27.0930   22.1680  -20.0490 C   0  0  0  0  0  0  0  0  0  0  0  0
  -27.6150   22.1350  -23.3900 N   0  0  0  0  0  0  0  0  0  0  0  0
  -26.7410   21.8540  -24.5300 C   0  0  2  0  0  0  0  0  0  0  0  0
  -25.3820   22.5250  -24.3140 C   0  0  0  0  0  0  0  0  0  0  0  0
  -25.3220   23.7040  -23.9570 O   0  0  0  0  0  0  0  0  0  0  0  0
  -27.3790   22.3440  -25.8210 C   0  0  0  0  0  0  0  0  0  0  0  0
  -24.2990   21.7560  -24.5110 N   0  0  0  0  0  0  0  0  0  0  0  0
  -22.9090   22.1880  -24.3240 C   0  0  2  0  0  0  0  0  0  0  0  0
  -22.2770   22.5240  -25.6950 C   0  0  0  0  0  0  0  0  0  0  0  0
  -22.2810   21.6820  -26.5960 O   0  0  0  0  0  0  0  0  0  0  0  0
  -22.1240   21.0420  -23.6360 C   0  0  0  0  0  0  0  0  0  0  0  0
  -21.4970   21.3420  -22.2580 C   0  0  0  0  0  0  0  0  0  0  0  0
  -22.4610   22.2970  -21.0470 S   0  0  0  0  0  0  0  0  0  0  0  0
  -23.5200   21.0400  -20.4020 C   0  0  0  0  0  0  0  0  0  0  0  0
  -21.7320   23.7490  -25.8370 N   0  0  0  0  0  0  0  0  0  0  0  0
  -21.0660   24.2130  -27.0630 C   0  0  2  0  0  0  0  0  0  0  0  0
  -19.5800   24.4590  -26.7670 C   0  0  0  0  0  0  0  0  0  0  0  0
  -19.2510   25.2460  -25.8780 O   0  0  0  0  0  0  0  0  0  0  0  0
  -21.7740   25.4570  -27.6980 C   0  0  2  0  0  0  0  0  0  0  0  0
  -23.2790   25.2000  -28.0260 C   0  0  0  0  0  0  0  0  0  0  0  0
  -20.9980   26.0260  -28.9040 C   0  0  0  0  0  0  0  0  0  0  0  0
  -23.6260   24.1880  -29.1840 C   0  0  0  0  0  0  0  0  0  0  0  0
  -18.6930   23.7690  -27.5050 N   0  0  0  0  0  0  0  0  0  0  0  0
  -17.2330   23.8650  -27.3610 C   0  0  2  0  0  0  0  0  0  0  0  0
  -16.5950   24.2590  -28.7120 C   0  0  0  0  0  0  0  0  0  0  0  0
  -17.2060   23.9730  -29.7410 O   0  0  0  0  0  0  0  0  0  0  0  0
  -16.6550   22.5230  -26.8540 C   0  0  2  0  0  0  0  0  0  0  0  0
  -16.9350   21.4890  -27.8000 O   0  0  0  0  0  0  0  0  0  0  0  0
  -17.1690   22.1310  -25.4670 C   0  0  0  0  0  0  0  0  0  0  0  0
  -16.4530   21.0230  -30.7030 N   0  0  0  0  0  0  0  0  0  0  0  0
  -17.7930   20.5700  -31.0940 C   0  0  2  0  0  0  0  0  0  0  0  0
  -18.7720   21.7720  -31.0790 C   0  0  0  0  0  0  0  0  0  0  0  0
  -19.4740   21.9770  -30.0830 O   0  0  0  0  0  0  0  0  0  0  0  0
  -18.2700   19.4430  -30.1790 C   0  0  0  0  0  0  0  0  0  0  0  0
  -17.3450   18.3680  -30.1420 O   0  0  0  0  0  0  0  0  0  0  0  0
  -18.7740   22.6300  -32.1340 N   0  0  0  0  0  0  0  0  0  0  0  0
  -19.6590   23.8100  -32.1120 C   0  0  2  0  0  0  0  0  0  0  0  0
  -21.1150   23.5460  -32.4970 C   0  0  0  0  0  0  0  0  0  0  0  0
  -21.9790   24.3700  -32.1940 O   0  0  0  0  0  0  0  0  0  0  0  0
  -18.9720   24.7850  -33.0700 C   0  0  0  0  0  0  0  0  0  0  0  0
  -18.1790   23.9300  -33.9980 C   0  0  0  0  0  0  0  0  0  0  0  0
  -17.9910   22.5700  -33.3870 C   0  0  0  0  0  0  0  0  0  0  0  0
  -21.3850   22.4100  -33.1680 N   0  0  0  0  0  0  0  0  0  0  0  0
  -22.7220   22.0190  -33.6110 C   0  0  2  0  0  0  0  0  0  0  0  0
  -23.2400   20.8200  -32.8190 C   0  0  0  0  0  0  0  0  0  0  0  0
  -22.4670   19.9080  -32.5120 O   0  0  0  0  0  0  0  0  0  0  0  0
  -22.7240   21.7130  -35.1040 C   0  0  0  0  0  0  0  0  0  0  0  0
  -24.0470   21.6280  -35.6030 O   0  0  0  0  0  0  0  0  0  0  0  0
  -24.5490   20.8290  -32.4830 N   0  0  0  0  0  0  0  0  0  0  0  0
  -25.2070   19.7610  -31.7210 C   0  0  2  0  0  0  0  0  0  0  0  0
  -26.7150   19.6310  -32.0210 C   0  0  0  0  0  0  0  0  0  0  0  0
  -27.4080   20.6400  -32.1710 O   0  0  0  0  0  0  0  0  0  0  0  0
  -24.8840   19.8360  -30.1940 C   0  0  0  0  0  0  0  0  0  0  0  0
  -25.6430   20.9630  -29.4870 C   0  0  0  0  0  0  0  0  0  0  0  0
  -25.1060   18.4950  -29.5010 C   0  0  0  0  0  0  0  0  0  0  0  0
  -27.2080   18.3810  -32.1070 N   0  0  0  0  0  0  0  0  0  0  0  0
  -28.6240   18.0660  -32.3010 C   0  0  2  0  0  0  0  0  0  0  0  0
  -29.2380   17.9540  -30.9030 C   0  0  0  0  0  0  0  0  0  0  0  0
  -28.7880   17.1370  -30.0930 O   0  0  0  0  0  0  0  0  0  0  0  0
  -28.8040   16.7420  -33.0640 C   0  0  0  0  0  0  0  0  0  0  0  0
  -28.4820   16.8160  -34.5450 C   0  0  0  0  0  0  0  0  0  0  0  0
  -28.7500   15.5280  -35.3000 C   0  0  0  0  0  0  0  0  0  0  0  0
  -28.1130   14.4990  -34.9790 O   0  0  0  0  0  0  0  0  0  0  0  0
  -29.5900   15.5530  -36.2280 O   0  0  0  0  0  0  0  0  0  0  0  0
  -30.2400   18.7930  -30.6110 N   0  0  0  0  0  0  0  0  0  0  0  0
  -30.8910   18.8290  -29.3010 C   0  0  2  0  0  0  0  0  0  0  0  0
  -32.2740   18.1810  -29.3520 C   0  0  0  0  0  0  0  0  0  0  0  0
  -33.1570   18.6610  -30.0670 O   0  0  0  0  0  0  0  0  0  0  0  0
  -30.9260   20.2650  -28.7010 C   0  0  0  0  0  0  0  0  0  0  0  0
  -31.5160   20.2670  -27.2930 C   0  0  0  0  0  0  0  0  0  0  0  0
  -29.5370   20.9000  -28.6960 C   0  0  0  0  0  0  0  0  0  0  0  0
  -32.4570   17.0970  -28.5830 N   0  0  0  0  0  0  0  0  0  0  0  0
  -33.7360   16.4050  -28.4990 C   0  0  2  0  0  0  0  0  0  0  0  0
  -34.6110   17.0700  -27.4400 C   0  0  0  0  0  0  0  0  0  0  0  0
  -34.2020   17.1850  -26.2800 O   0  0  0  0  0  0  0  0  0  0  0  0
  -33.5530   14.9170  -28.1590 C   0  0  0  0  0  0  0  0  0  0  0  0
  -33.2400   14.0160  -29.3450 C   0  0  0  0  0  0  0  0  0  0  0  0
  -33.3430   12.5460  -28.9370 C   0  0  0  0  0  0  0  0  0  0  0  0
  -32.7040   11.6010  -29.9230 C   0  0  0  0  0  0  0  0  0  0  0  0
  -33.5730   11.3500  -31.0990 N   0  0  0  0  0  0  0  0  0  0  0  0
  2  1  1  0
  3  2  1  0
  4  3  2  0
  5  3  1  0
  6  5  1  6
  7  6  1  0
  8  7  2  0
  9  6  1  0
 10  9  1  0
 11  9  1  0
 12  7  1  0
 13 12  1  1
 14 13  1  0
 15 14  2  0
 16 13  1  0
 17 16  1  0
 16 18  1  6
 19 14  1  0
 20 19  1  0
 21 20  1  0
 22 21  2  0
 20 23  1  6
 24 21  1  0
 25 24  1  0
 26 25  1  0
 27 26  2  0
 25 28  1  6
 29 28  1  0
 30 29  1  0
 31 30  1  0
 32 26  1  0
 33 32  1  1
 34 33  1  0
 35 34  2  0
 36 33  1  0
 37 36  1  0
 36 38  1  6
 39 37  1  0
 40 34  1  0
 41 40  1  6
 42 41  1  0
 43 42  2  0
 44 41  1  0
 45 44  1  0
 44 46  1  1
 48 47  1  1
 49 48  1  0
 50 49  2  0
 51 48  1  0
 52 51  1  0
 53 49  1  0
 54 53  1  0
 54 55  1  6
 56 55  2  0
 57 54  1  0
 58 57  1  0
 59 58  1  0
 59 53  1  0
 60 55  1  0
 61 60  1  0
 62 61  1  0
 63 62  2  0
 61 64  1  6
 65 64  1  0
 66 62  1  0
 67 66  1  6
 68 67  1  0
 69 68  2  0
 70 67  1  0
 71 70  1  0
 72 70  1  0
 73 68  1  0
 74 73  1  0
 75 74  1  0
 76 75  2  0
 74 77  1  1
 78 77  1  0
 79 78  1  0
 80 79  2  0
 81 79  1  0
 82 75  1  0
 83 82  1  6
 84 83  1  0
 85 84  2  0
 86 83  1  0
 87 86  1  0
 88 86  1  0
 89 84  1  0
 90 89  1  0
 91 90  1  0
 92 91  2  0
 90 93  1  1
 94 93  1  0
 95 94  1  0
 96 95  1  0
 97 96  1  0
M  END
$$$$
