
     RDKit          3D

119116  0  0  0  0  0  0  0  0999 V2000
    0.8010   13.6160  -11.1340 N   0  0  0  0  0  0  0  0  0  0  0  0
    0.1470   12.7590  -12.1020 C   0  0  2  0  0  0  0  0  0  0  0  0
   -0.5720   11.5950  -11.4610 C   0  0  0  0  0  0  0  0  0  0  0  0
    0.0340   10.8700  -10.6680 O   0  0  0  0  0  0  0  0  0  0  0  0
    1.1170   12.2360  -13.1380 C   0  0  0  0  0  0  0  0  0  0  0  0
    0.4190   11.3930  -14.1760 C   0  0  0  0  0  0  0  0  0  0  0  0
    1.3740   10.7990  -15.1540 C   0  0  0  0  0  0  0  0  0  0  0  0
    2.4640   10.3240  -14.7870 O   0  0  0  0  0  0  0  0  0  0  0  0
    0.9860   10.8240  -16.4250 N   0  0  0  0  0  0  0  0  0  0  0  0
   -1.8490   11.4280  -11.8320 N   0  0  0  0  0  0  0  0  0  0  0  0
   -2.6610   10.2530  -11.4840 C   0  0  0  0  0  0  0  0  0  0  0  0
   -2.0420    8.9470  -11.9790 C   0  0  0  0  0  0  0  0  0  0  0  0
   -1.2070    8.9550  -12.9020 O   0  0  0  0  0  0  0  0  0  0  0  0
   -2.4690    7.8050  -11.3950 N   0  0  0  0  0  0  0  0  0  0  0  0
   -1.7630    6.5200  -11.5970 C   0  0  2  0  0  0  0  0  0  0  0  0
   -2.2000    5.8710  -12.9100 C   0  0  0  0  0  0  0  0  0  0  0  0
   -1.5980    4.9010  -13.3730 O   0  0  0  0  0  0  0  0  0  0  0  0
   -2.2200    5.6840  -10.3990 C   0  0  0  0  0  0  0  0  0  0  0  0
   -3.6470    6.1990  -10.1200 C   0  0  0  0  0  0  0  0  0  0  0  0
   -3.7010    7.6540  -10.5840 C   0  0  0  0  0  0  0  0  0  0  0  0
   -3.2750    6.4200  -13.4730 N   0  0  0  0  0  0  0  0  0  0  0  0
   -3.7720    6.0600  -14.7820 C   0  0  2  0  0  0  0  0  0  0  0  0
   -3.9550    7.2810  -15.6800 C   0  0  0  0  0  0  0  0  0  0  0  0
   -4.2490    7.1250  -16.8600 O   0  0  0  0  0  0  0  0  0  0  0  0
   -5.0700    5.2660  -14.6590 C   0  0  0  0  0  0  0  0  0  0  0  0
   -4.8400    3.8050  -14.9630 C   0  0  0  0  0  0  0  0  0  0  0  0
   -5.8340    2.8900  -14.2820 C   0  0  0  0  0  0  0  0  0  0  0  0
   -5.3270    1.4540  -14.3890 C   0  0  0  0  0  0  0  0  0  0  0  0
   -5.9530    0.5600  -13.3750 N   0  0  0  0  0  0  0  0  0  0  0  0
   -3.7760    8.4860  -15.1330 N   0  0  0  0  0  0  0  0  0  0  0  0
   -3.7980    9.7080  -15.9460 C   0  0  2  0  0  0  0  0  0  0  0  0
   -2.6330    9.7320  -16.9390 C   0  0  0  0  0  0  0  0  0  0  0  0
   -1.4880    9.5670  -16.5350 O   0  0  0  0  0  0  0  0  0  0  0  0
   -3.7100   10.9360  -15.0510 C   0  0  0  0  0  0  0  0  0  0  0  0
   -3.5390   12.2100  -15.8480 C   0  0  0  0  0  0  0  0  0  0  0  0
   -3.7190   13.4520  -15.0190 C   0  0  0  0  0  0  0  0  0  0  0  0
   -3.1180   13.5430  -13.9180 O   0  0  0  0  0  0  0  0  0  0  0  0
   -4.4630   14.3440  -15.4870 O   0  0  0  0  0  0  0  0  0  0  0  0
   -2.8990    9.9470  -18.2240 N   0  0  0  0  0  0  0  0  0  0  0  0
   -1.7900    9.9540  -19.1780 C   0  0  2  0  0  0  0  0  0  0  0  0
   -1.0210   11.2500  -19.0650 C   0  0  0  0  0  0  0  0  0  0  0  0
   -1.6050   12.3020  -18.7900 O   0  0  0  0  0  0  0  0  0  0  0  0
   -2.2510    9.7620  -20.6190 C   0  0  0  0  0  0  0  0  0  0  0  0
   -2.5200   11.0120  -21.2260 O   0  0  0  0  0  0  0  0  0  0  0  0
    3.5100   10.1210  -12.1430 N   0  0  0  0  0  0  0  0  0  0  0  0
    3.2300    8.8250  -11.5260 C   0  0  2  0  0  0  0  0  0  0  0  0
    4.5090    7.9650  -11.4000 C   0  0  0  0  0  0  0  0  0  0  0  0
    5.3250    7.9030  -12.3210 O   0  0  0  0  0  0  0  0  0  0  0  0
    2.0530    8.1170  -12.2390 C   0  0  0  0  0  0  0  0  0  0  0  0
    2.4770    6.9080  -13.0830 C   0  0  0  0  0  0  0  0  0  0  0  0
    2.8160    5.8350  -12.5520 O   0  0  0  0  0  0  0  0  0  0  0  0
    2.4110    7.0580  -14.4000 N   0  0  0  0  0  0  0  0  0  0  0  0
    5.6600    5.0720  -11.7340 N   0  0  0  0  0  0  0  0  0  0  0  0
    6.0760    4.1210  -12.7520 C   0  0  2  0  0  0  0  0  0  0  0  0
    6.5520    4.8570  -13.9860 C   0  0  0  0  0  0  0  0  0  0  0  0
    7.5200    4.4730  -14.6250 O   0  0  0  0  0  0  0  0  0  0  0  0
    4.9070    3.1960  -13.1160 C   0  0  0  0  0  0  0  0  0  0  0  0
    5.3110    2.0840  -14.0900 C   0  0  0  0  0  0  0  0  0  0  0  0
    6.4990    1.6710  -14.0430 O   0  0  0  0  0  0  0  0  0  0  0  0
    4.4530    1.6170  -14.8910 O   0  0  0  0  0  0  0  0  0  0  0  0
    5.8520    5.9300  -14.3090 N   0  0  0  0  0  0  0  0  0  0  0  0
    6.0830    6.6500  -15.5360 C   0  0  2  0  0  0  0  0  0  0  0  0
    7.4620    7.2740  -15.5690 C   0  0  0  0  0  0  0  0  0  0  0  0
    8.0870    7.2930  -16.6230 O   0  0  0  0  0  0  0  0  0  0  0  0
    4.9930    7.6960  -15.7340 C   0  0  0  0  0  0  0  0  0  0  0  0
    5.3940    9.0590  -16.8490 S   0  0  0  0  0  0  0  0  0  0  0  0
   10.1640    6.0470  -14.2520 N   0  0  0  0  0  0  0  0  0  0  0  0
   10.9790    4.9000  -14.6540 C   0  0  2  0  0  0  0  0  0  0  0  0
   11.3590    4.9980  -16.1080 C   0  0  0  0  0  0  0  0  0  0  0  0
   12.5570    4.9600  -16.4700 O   0  0  0  0  0  0  0  0  0  0  0  0
   10.1800    3.5890  -14.6140 C   0  0  2  0  0  0  0  0  0  0  0  0
    9.5980    3.4060  -13.3330 O   0  0  0  0  0  0  0  0  0  0  0  0
   11.0550    2.4220  -14.9030 C   0  0  0  0  0  0  0  0  0  0  0  0
   10.3210    5.0730  -16.9460 N   0  0  0  0  0  0  0  0  0  0  0  0
   10.5400    5.1120  -18.3610 C   0  0  2  0  0  0  0  0  0  0  0  0
   11.1590    6.4440  -18.6920 C   0  0  0  0  0  0  0  0  0  0  0  0
   12.1890    6.4720  -19.3220 O   0  0  0  0  0  0  0  0  0  0  0  0
    9.3120    4.7100  -19.2130 C   0  0  2  0  0  0  0  0  0  0  0  0
    9.7860    4.3140  -20.6040 C   0  0  0  0  0  0  0  0  0  0  0  0
    8.2790    5.7990  -19.2900 C   0  0  0  0  0  0  0  0  0  0  0  0
    9.0650    3.1690  -21.1660 C   0  0  0  0  0  0  0  0  0  0  0  0
    4.4280   10.7140  -25.4350 N   0  0  0  0  0  0  0  0  0  0  0  0
    4.2940    9.4410  -26.1580 C   0  0  2  0  0  0  0  0  0  0  0  0
    4.6680    8.2520  -25.2520 C   0  0  0  0  0  0  0  0  0  0  0  0
    3.9040    7.3020  -25.1260 O   0  0  0  0  0  0  0  0  0  0  0  0
    5.1570    9.4600  -27.4600 C   0  0  2  0  0  0  0  0  0  0  0  0
    4.6420   10.4500  -28.3520 O   0  0  0  0  0  0  0  0  0  0  0  0
    5.1670    8.1270  -28.1650 C   0  0  0  0  0  0  0  0  0  0  0  0
    5.8340    8.3430  -24.6060 N   0  0  0  0  0  0  0  0  0  0  0  0
    6.3690    7.2920  -23.7390 C   0  0  2  0  0  0  0  0  0  0  0  0
    5.3920    6.9730  -22.6550 C   0  0  0  0  0  0  0  0  0  0  0  0
    5.2940    5.8260  -22.2140 O   0  0  0  0  0  0  0  0  0  0  0  0
    7.6530    7.7420  -23.1130 C   0  0  0  0  0  0  0  0  0  0  0  0
    4.6650    8.0020  -22.2350 N   0  0  0  0  0  0  0  0  0  0  0  0
    3.8620    7.9070  -21.0310 C   0  0  2  0  0  0  0  0  0  0  0  0
    2.3520    7.9320  -21.2000 C   0  0  0  0  0  0  0  0  0  0  0  0
    1.6560    7.9580  -20.2050 O   0  0  0  0  0  0  0  0  0  0  0  0
    4.3190    8.9230  -19.9880 C   0  0  0  0  0  0  0  0  0  0  0  0
    5.7810    8.4000  -19.0440 S   0  0  0  0  0  0  0  0  0  0  0  0
    1.8370    7.8810  -22.4280 N   0  0  0  0  0  0  0  0  0  0  0  0
    0.4350    7.4840  -22.6120 C   0  0  2  0  0  0  0  0  0  0  0  0
    0.3480    5.9920  -22.2720 C   0  0  0  0  0  0  0  0  0  0  0  0
    1.3690    5.3600  -22.0260 O   0  0  0  0  0  0  0  0  0  0  0  0
   -0.0740    7.7920  -24.0230 C   0  0  0  0  0  0  0  0  0  0  0  0
    0.5710    6.9890  -25.1460 C   0  0  0  0  0  0  0  0  0  0  0  0
    0.5880    7.7270  -26.5060 C   0  0  0  0  0  0  0  0  0  0  0  0
   -0.0490    8.7780  -26.6880 O   0  0  0  0  0  0  0  0  0  0  0  0
    1.3310    7.1710  -27.4640 N   0  0  0  0  0  0  0  0  0  0  0  0
   -0.8560    5.4300  -22.2360 N   0  0  0  0  0  0  0  0  0  0  0  0
   -1.0510    4.0300  -21.7960 C   0  0  0  0  0  0  0  0  0  0  0  0
   -0.6320    2.9680  -22.8030 C   0  0  0  0  0  0  0  0  0  0  0  0
    0.2400    3.2120  -23.6450 O   0  0  0  0  0  0  0  0  0  0  0  0
   -1.2400    1.7830  -22.7200 N   0  0  0  0  0  0  0  0  0  0  0  0
   -0.9350    0.7130  -23.6820 C   0  0  2  0  0  0  0  0  0  0  0  0
   -2.1890    0.3010  -24.4480 C   0  0  0  0  0  0  0  0  0  0  0  0
   -2.4080    0.7600  -25.5780 O   0  0  0  0  0  0  0  0  0  0  0  0
   -0.1900   -0.4880  -23.0280 C   0  0  0  0  0  0  0  0  0  0  0  0
   -0.3640   -1.7650  -23.8520 C   0  0  0  0  0  0  0  0  0  0  0  0
    1.3060   -0.1560  -22.8480 C   0  0  0  0  0  0  0  0  0  0  0  0
  2  1  1  1
  3  2  1  0
  4  3  2  0
  5  2  1  0
  6  5  1  0
  7  6  1  0
  8  7  2  0
  9  7  1  0
 10  3  1  0
 11 10  1  0
 12 11  1  0
 13 12  2  0
 14 12  1  0
 15 14  1  0
 15 16  1  6
 17 16  2  0
 18 15  1  0
 19 18  1  0
 20 14  1  0
 20 19  1  0
 21 16  1  0
 22 21  1  0
 23 22  1  0
 24 23  2  0
 22 25  1  1
 26 25  1  0
 27 26  1  0
 28 27  1  0
 29 28  1  0
 30 23  1  0
 31 30  1  0
 32 31  1  0
 33 32  2  0
 31 34  1  1
 35 34  1  0
 36 35  1  0
 37 36  2  0
 38 36  1  0
 39 32  1  0
 40 39  1  0
 41 40  1  0
 42 41  2  0
 40 43  1  6
 44 43  1  0
 46 45  1  6
 47 46  1  0
 48 47  2  0
 49 46  1  0
 50 49  1  0
 51 50  2  0
 52 50  1  0
 54 53  1  1
 55 54  1  0
 56 55  2  0
 57 54  1  0
 58 57  1  0
 59 58  2  0
 60 58  1  0
 61 55  1  0
 62 61  1  0
 63 62  1  0
 64 63  2  0
 62 65  1  1
 66 65  1  0
 68 67  1  6
 69 68  1  0
 70 69  2  0
 71 68  1  0
 72 71  1  0
 71 73  1  1
 74 69  1  0
 75 74  1  1
 76 75  1  0
 77 76  2  0
 78 75  1  0
 79 78  1  0
 78 80  1  6
 81 79  1  0
 83 82  1  1
 84 83  1  0
 85 84  2  0
 86 83  1  0
 87 86  1  0
 86 88  1  6
 89 84  1  0
 90 89  1  0
 91 90  1  0
 92 91  2  0
 90 93  1  1
 94 91  1  0
 95 94  1  0
 96 95  1  0
 97 96  2  0
 95 98  1  1
 99 98  1  0
 99 66  1  0
100 96  1  0
101100  1  0
102101  1  0
103102  2  0
101104  1  6
105104  1  0
106105  1  0
107106  2  0
108106  1  0
109102  1  0
110109  1  0
111110  1  0
112111  2  0
113111  1  0
114113  1  1
115114  1  0
116115  2  0
117114  1  0
118117  1  0
119117  1  0
M  END
$$$$
