
     RDKit          3D

121121  0  0  0  0  0  0  0  0999 V2000
   -0.7860   33.6730   16.5580 N   0  0  0  0  0  0  0  0  0  0  0  0
   -1.8830   34.4450   16.0030 C   0  0  2  0  0  0  0  0  0  0  0  0
   -1.3680   35.2540   14.8200 C   0  0  0  0  0  0  0  0  0  0  0  0
   -1.9100   36.3060   14.4730 O   0  0  0  0  0  0  0  0  0  0  0  0
   -2.5330   35.3260   17.0820 C   0  0  0  0  0  0  0  0  0  0  0  0
   -3.9930   35.6780   16.7960 C   0  0  0  0  0  0  0  0  0  0  0  0
   -4.9540   34.4700   16.8490 C   0  0  0  0  0  0  0  0  0  0  0  0
   -4.8720   33.5380   16.0270 O   0  0  0  0  0  0  0  0  0  0  0  0
   -5.8820   34.4960   17.8170 N   0  0  0  0  0  0  0  0  0  0  0  0
   -0.7750   33.9950   11.3910 N   0  0  0  0  0  0  0  0  0  0  0  0
   -0.9190   33.1350   10.2260 C   0  0  2  0  0  0  0  0  0  0  0  0
    0.0440   33.4390    9.0710 C   0  0  0  0  0  0  0  0  0  0  0  0
    0.3310   34.6000    8.7470 O   0  0  0  0  0  0  0  0  0  0  0  0
   -2.3610   33.2210    9.7010 C   0  0  0  0  0  0  0  0  0  0  0  0
   -3.4360   33.1650   10.7770 C   0  0  0  0  0  0  0  0  0  0  0  0
   -3.7400   34.5320   11.3910 C   0  0  0  0  0  0  0  0  0  0  0  0
   -4.2350   34.5870   12.5480 O   0  0  0  0  0  0  0  0  0  0  0  0
   -3.4770   35.5530   10.7090 O   0  0  0  0  0  0  0  0  0  0  0  0
    6.6510   20.8390   12.5570 N   0  0  0  0  0  0  0  0  0  0  0  0
    5.6780   20.8020   11.4750 C   0  0  2  0  0  0  0  0  0  0  0  0
    4.6010   19.7570   11.7080 C   0  0  0  0  0  0  0  0  0  0  0  0
    4.8620   18.7200   12.3080 O   0  0  0  0  0  0  0  0  0  0  0  0
    6.3680   20.4550   10.1720 C   0  0  0  0  0  0  0  0  0  0  0  0
    7.3560   21.4620    9.7160 C   0  0  0  0  0  0  0  0  0  0  0  0
    6.9390   22.6030    9.0680 C   0  0  0  0  0  0  0  0  0  0  0  0
    8.7100   21.2320    9.8760 C   0  0  0  0  0  0  0  0  0  0  0  0
    7.8460   23.5160    8.6100 C   0  0  0  0  0  0  0  0  0  0  0  0
    9.6320   22.1340    9.4180 C   0  0  0  0  0  0  0  0  0  0  0  0
    9.1990   23.2860    8.7870 C   0  0  0  0  0  0  0  0  0  0  0  0
    3.4010   19.9970   11.1950 N   0  0  0  0  0  0  0  0  0  0  0  0
    2.3410   19.0050   11.3400 C   0  0  2  0  0  0  0  0  0  0  0  0
    1.3800   19.0020   10.1700 C   0  0  0  0  0  0  0  0  0  0  0  0
    1.3380   19.9430    9.3900 O   0  0  0  0  0  0  0  0  0  0  0  0
    1.5550   19.2330   12.6300 C   0  0  0  0  0  0  0  0  0  0  0  0
    0.5840   20.3840   12.5320 C   0  0  0  0  0  0  0  0  0  0  0  0
   -0.1770   20.5210   13.8080 C   0  0  0  0  0  0  0  0  0  0  0  0
   -1.3030   21.5060   13.7340 C   0  0  0  0  0  0  0  0  0  0  0  0
   -2.0800   21.2250   14.9550 N   0  0  0  0  0  0  0  0  0  0  0  0
    0.5970   17.9370   10.0670 N   0  0  0  0  0  0  0  0  0  0  0  0
   -0.4340   17.8490    9.0540 C   0  0  0  0  0  0  0  0  0  0  0  0
   -1.2970   16.6350    9.3080 C   0  0  0  0  0  0  0  0  0  0  0  0
   -0.9990   15.8640   10.2200 O   0  0  0  0  0  0  0  0  0  0  0  0
   -2.3620   16.4680    8.5230 N   0  0  0  0  0  0  0  0  0  0  0  0
   -3.1880   15.2610    8.5810 C   0  0  2  0  0  0  0  0  0  0  0  0
   -3.2760   14.5820    7.1890 C   0  0  0  0  0  0  0  0  0  0  0  0
   -3.8620   15.1470    6.2500 O   0  0  0  0  0  0  0  0  0  0  0  0
   -4.5820   15.5980    9.1060 C   0  0  0  0  0  0  0  0  0  0  0  0
   -4.6450   16.0830   10.5540 C   0  0  0  0  0  0  0  0  0  0  0  0
   -6.0070   16.6910   10.9120 C   0  0  0  0  0  0  0  0  0  0  0  0
   -6.6370   16.3290   11.9070 O   0  0  0  0  0  0  0  0  0  0  0  0
   -6.4570   17.6300   10.0940 N   0  0  0  0  0  0  0  0  0  0  0  0
   -2.6850   13.3880    7.0500 N   0  0  0  0  0  0  0  0  0  0  0  0
   -2.6610   12.6850    5.7760 C   0  0  0  0  0  0  0  0  0  0  0  0
   -1.7110   13.2940    4.7490 C   0  0  0  0  0  0  0  0  0  0  0  0
   -1.1400   14.3630    4.9830 O   0  0  0  0  0  0  0  0  0  0  0  0
   -7.2250    9.7820    7.3550 N   0  0  0  0  0  0  0  0  0  0  0  0
   -6.1310   10.7610    7.3530 C   0  0  2  0  0  0  0  0  0  0  0  0
   -5.5560   10.9400    8.7480 C   0  0  0  0  0  0  0  0  0  0  0  0
   -6.2080   11.4670    9.6450 O   0  0  0  0  0  0  0  0  0  0  0  0
   -6.5970   12.0940    6.8110 C   0  0  0  0  0  0  0  0  0  0  0  0
   -2.8060   12.1150   11.8130 N   0  0  0  0  0  0  0  0  0  0  0  0
   -1.9470   13.2150   12.2350 C   0  0  2  0  0  0  0  0  0  0  0  0
   -0.4840   12.8630   12.0180 C   0  0  0  0  0  0  0  0  0  0  0  0
   -0.0710   11.7900   12.4290 O   0  0  0  0  0  0  0  0  0  0  0  0
   -2.2190   13.3010   13.7390 C   0  0  0  0  0  0  0  0  0  0  0  0
   -3.5200   12.6410   13.9450 C   0  0  0  0  0  0  0  0  0  0  0  0
   -3.5850   11.5630   12.9320 C   0  0  0  0  0  0  0  0  0  0  0  0
    0.2880   13.7360   11.3850 N   0  0  0  0  0  0  0  0  0  0  0  0
    1.7280   13.5400   11.3400 C   0  0  2  0  0  0  0  0  0  0  0  0
    2.4260   14.7640   11.9250 C   0  0  0  0  0  0  0  0  0  0  0  0
    1.9450   15.8810   11.7610 O   0  0  0  0  0  0  0  0  0  0  0  0
    2.2190   13.2180    9.9170 C   0  0  0  0  0  0  0  0  0  0  0  0
    2.0490   14.3140    8.8930 C   0  0  0  0  0  0  0  0  0  0  0  0
    1.0600   14.4190    7.9670 C   0  0  0  0  0  0  0  0  0  0  0  0
    2.9130   15.4420    8.6850 C   0  0  0  0  0  0  0  0  0  0  0  0
    1.2410   15.5440    7.2010 N   0  0  0  0  0  0  0  0  0  0  0  0
    2.3700   16.1920    7.6240 C   0  0  0  0  0  0  0  0  0  0  0  0
    4.0890   15.8930    9.2980 C   0  0  0  0  0  0  0  0  0  0  0  0
    2.9600   17.3700    7.1640 C   0  0  0  0  0  0  0  0  0  0  0  0
    4.6730   17.0610    8.8400 C   0  0  0  0  0  0  0  0  0  0  0  0
    4.1080   17.7850    7.7860 C   0  0  0  0  0  0  0  0  0  0  0  0
    3.5320   14.5450   12.6360 N   0  0  0  0  0  0  0  0  0  0  0  0
    4.3090   15.6380   13.2240 C   0  0  2  0  0  0  0  0  0  0  0  0
    5.7800   15.4420   12.9380 C   0  0  0  0  0  0  0  0  0  0  0  0
    6.3140   14.3610   13.1530 O   0  0  0  0  0  0  0  0  0  0  0  0
    4.1620   15.6800   14.7460 C   0  0  0  0  0  0  0  0  0  0  0  0
    2.8040   16.0340   15.2830 C   0  0  0  0  0  0  0  0  0  0  0  0
    2.4970   17.3370   15.6490 C   0  0  0  0  0  0  0  0  0  0  0  0
    1.8310   15.0600   15.4520 C   0  0  0  0  0  0  0  0  0  0  0  0
    1.2440   17.6610   16.1620 C   0  0  0  0  0  0  0  0  0  0  0  0
    0.5800   15.3800   15.9580 C   0  0  0  0  0  0  0  0  0  0  0  0
    0.2920   16.6760   16.3170 C   0  0  0  0  0  0  0  0  0  0  0  0
   -0.9510   16.9760   16.8240 O   0  0  0  0  0  0  0  0  0  0  0  0
    2.9960   27.4270    6.8840 N   0  0  0  0  0  0  0  0  0  0  0  0
    1.6110   27.0200    7.0630 C   0  0  2  0  0  0  0  0  0  0  0  0
    1.5100   25.5850    7.5300 C   0  0  0  0  0  0  0  0  0  0  0  0
    0.4240   25.1100    7.8190 O   0  0  0  0  0  0  0  0  0  0  0  0
    0.8020   27.2240    5.7820 C   0  0  0  0  0  0  0  0  0  0  0  0
    1.3850   26.4720    4.5850 C   0  0  0  0  0  0  0  0  0  0  0  0
    2.6300   26.4550    4.4190 O   0  0  0  0  0  0  0  0  0  0  0  0
    0.5940   25.8970    3.7960 O   0  0  0  0  0  0  0  0  0  0  0  0
    2.6450   24.9060    7.6310 N   0  0  0  0  0  0  0  0  0  0  0  0
    2.6600   23.5510    8.1570 C   0  0  2  0  0  0  0  0  0  0  0  0
    3.1290   23.5040    9.6050 C   0  0  0  0  0  0  0  0  0  0  0  0
    3.2750   22.4290   10.1800 O   0  0  0  0  0  0  0  0  0  0  0  0
    3.5620   22.6630    7.3160 C   0  0  0  0  0  0  0  0  0  0  0  0
    2.9430   22.1540    6.0390 C   0  0  0  0  0  0  0  0  0  0  0  0
    2.4990   23.0300    5.0640 C   0  0  0  0  0  0  0  0  0  0  0  0
    2.8270   20.7940    5.7980 C   0  0  0  0  0  0  0  0  0  0  0  0
    1.9440   22.5710    3.8890 C   0  0  0  0  0  0  0  0  0  0  0  0
    2.2760   20.3230    4.6210 C   0  0  0  0  0  0  0  0  0  0  0  0
    1.8400   21.2190    3.6680 C   0  0  0  0  0  0  0  0  0  0  0  0
    1.2900   20.7660    2.4880 O   0  0  0  0  0  0  0  0  0  0  0  0
    3.3730   24.6740   10.1830 N   0  0  0  0  0  0  0  0  0  0  0  0
    3.7360   24.7840   11.5990 C   0  0  2  0  0  0  0  0  0  0  0  0
    2.6110   24.4230   12.5610 C   0  0  0  0  0  0  0  0  0  0  0  0
    1.4330   24.6280   12.2600 O   0  0  0  0  0  0  0  0  0  0  0  0
    4.1780   26.2030   11.9250 C   0  0  0  0  0  0  0  0  0  0  0  0
    5.5850   26.5560   11.4910 C   0  0  0  0  0  0  0  0  0  0  0  0
    5.8960   27.9780   11.9230 C   0  0  0  0  0  0  0  0  0  0  0  0
    6.5440   25.5520   12.0970 C   0  0  0  0  0  0  0  0  0  0  0  0
  2  1  1  1
  3  2  1  0
  4  3  2  0
  5  2  1  0
  6  5  1  0
  7  6  1  0
  8  7  2  0
  9  7  1  0
 11 10  1  1
 12 11  1  0
 13 12  2  0
 14 11  1  0
 15 14  1  0
 16 15  1  0
 17 16  2  0
 18 16  1  0
 20 19  1  1
 21 20  1  0
 22 21  2  0
 23 20  1  0
 24 23  1  0
 25 24  2  0
 26 24  1  0
 27 25  1  0
 28 26  2  0
 29 28  1  0
 29 27  2  0
 30 21  1  0
 31 30  1  0
 32 31  1  0
 33 32  2  0
 31 34  1  1
 35 34  1  0
 36 35  1  0
 37 36  1  0
 38 37  1  0
 39 32  1  0
 40 39  1  0
 41 40  1  0
 42 41  2  0
 43 41  1  0
 44 43  1  0
 45 44  1  0
 46 45  2  0
 44 47  1  6
 48 47  1  0
 49 48  1  0
 50 49  2  0
 51 49  1  0
 52 45  1  0
 53 52  1  0
 54 53  1  0
 55 54  2  0
 57 56  1  0
 58 57  1  0
 59 58  2  0
 57 60  1  1
 62 61  1  0
 62 63  1  1
 64 63  2  0
 65 62  1  0
 66 65  1  0
 67 66  1  0
 67 61  1  0
 68 63  1  0
 69 68  1  0
 70 69  1  0
 71 70  2  0
 69 72  1  6
 73 72  1  0
 74 73  2  0
 75 73  1  0
 76 74  1  0
 77 76  1  0
 77 75  2  0
 78 75  1  0
 79 77  1  0
 80 78  2  0
 81 80  1  0
 81 79  2  0
 82 70  1  0
 83 82  1  0
 84 83  1  0
 85 84  2  0
 83 86  1  1
 87 86  1  0
 88 87  2  0
 89 87  1  0
 90 88  1  0
 91 89  2  0
 92 91  1  0
 92 90  2  0
 93 92  1  0
 95 94  1  6
 96 95  1  0
 97 96  2  0
 98 95  1  0
 99 98  1  0
100 99  2  0
101 99  1  0
102 96  1  0
103102  1  0
104103  1  0
105104  2  0
103106  1  6
107106  1  0
108107  2  0
109107  1  0
110108  1  0
111109  2  0
112111  1  0
112110  2  0
113112  1  0
114104  1  0
115114  1  0
116115  1  0
117116  2  0
115118  1  1
119118  1  0
120119  1  0
121119  1  0
M  END
$$$$
