
     RDKit          3D

228227  0  0  0  0  0  0  0  0999 V2000
   19.4320   21.8310  128.5160 N   0  0  0  0  0  0  0  0  0  0  0  0
   18.8560   21.5700  127.1860 C   0  0  2  0  0  0  0  0  0  0  0  0
   19.8670   20.9540  126.2240 C   0  0  0  0  0  0  0  0  0  0  0  0
   19.5560   19.9810  125.5170 O   0  0  0  0  0  0  0  0  0  0  0  0
   18.2610   22.8240  126.5650 C   0  0  0  0  0  0  0  0  0  0  0  0
   17.6690   22.5900  125.2140 C   0  0  0  0  0  0  0  0  0  0  0  0
   16.3990   22.0120  125.0930 C   0  0  0  0  0  0  0  0  0  0  0  0
   18.3760   22.8970  124.0600 C   0  0  0  0  0  0  0  0  0  0  0  0
   15.8450   21.7750  123.8460 C   0  0  0  0  0  0  0  0  0  0  0  0
   17.8220   22.6670  122.8060 C   0  0  0  0  0  0  0  0  0  0  0  0
   16.5510   22.1050  122.6970 C   0  0  0  0  0  0  0  0  0  0  0  0
   19.7340   17.2660  124.3730 N   0  0  0  0  0  0  0  0  0  0  0  0
   19.6280   17.0190  122.9320 C   0  0  2  0  0  0  0  0  0  0  0  0
   20.8500   16.2890  122.3830 C   0  0  0  0  0  0  0  0  0  0  0  0
   20.7310   15.5500  121.4170 O   0  0  0  0  0  0  0  0  0  0  0  0
   19.2480   18.2740  122.1270 C   0  0  0  0  0  0  0  0  0  0  0  0
   17.8700   18.7550  122.5620 C   0  0  0  0  0  0  0  0  0  0  0  0
   20.2980   19.3670  122.2940 C   0  0  0  0  0  0  0  0  0  0  0  0
   21.9940   16.4770  123.0380 N   0  0  0  0  0  0  0  0  0  0  0  0
   23.2220   15.7610  122.7390 C   0  0  2  0  0  0  0  0  0  0  0  0
   23.0390   14.2470  123.0530 C   0  0  0  0  0  0  0  0  0  0  0  0
   23.3350   13.3790  122.2060 O   0  0  0  0  0  0  0  0  0  0  0  0
   24.3410   16.3920  123.5800 C   0  0  0  0  0  0  0  0  0  0  0  0
   25.7440   16.0860  123.1420 C   0  0  0  0  0  0  0  0  0  0  0  0
   26.7050   17.2440  123.4280 C   0  0  0  0  0  0  0  0  0  0  0  0
   26.3070   18.4380  123.3370 O   0  0  0  0  0  0  0  0  0  0  0  0
   27.8740   16.9520  123.7410 O   0  0  0  0  0  0  0  0  0  0  0  0
   20.1300   12.6910  123.3620 N   0  0  0  0  0  0  0  0  0  0  0  0
   19.0910   12.2230  122.4340 C   0  0  2  0  0  0  0  0  0  0  0  0
   19.6570   11.8640  121.0460 C   0  0  0  0  0  0  0  0  0  0  0  0
   19.3040   10.8340  120.4900 O   0  0  0  0  0  0  0  0  0  0  0  0
   17.9970   13.3020  122.2560 C   0  0  0  0  0  0  0  0  0  0  0  0
   17.0630   12.9410  121.1020 C   0  0  0  0  0  0  0  0  0  0  0  0
   17.2300   13.4840  123.5640 C   0  0  0  0  0  0  0  0  0  0  0  0
   20.5460   12.7070  120.5140 N   0  0  0  0  0  0  0  0  0  0  0  0
   21.2550   12.4050  119.2520 C   0  0  2  0  0  0  0  0  0  0  0  0
   22.1210   11.1580  119.3640 C   0  0  0  0  0  0  0  0  0  0  0  0
   22.2380   10.3980  118.3930 O   0  0  0  0  0  0  0  0  0  0  0  0
   22.1260   13.5830  118.8290 C   0  0  0  0  0  0  0  0  0  0  0  0
   22.7530   10.9600  120.5220 N   0  0  0  0  0  0  0  0  0  0  0  0
   23.6060    9.7860  120.7510 C   0  0  2  0  0  0  0  0  0  0  0  0
   22.8070    8.4940  120.8380 C   0  0  0  0  0  0  0  0  0  0  0  0
   23.3130    7.4580  120.4510 O   0  0  0  0  0  0  0  0  0  0  0  0
   24.4380    9.9290  122.0400 C   0  0  0  0  0  0  0  0  0  0  0  0
   25.8600   10.4220  121.8360 C   0  0  0  0  0  0  0  0  0  0  0  0
   26.7580   10.1850  123.0580 C   0  0  0  0  0  0  0  0  0  0  0  0
   26.1170   10.5300  124.3300 N   0  0  0  0  0  0  0  0  0  0  0  0
   26.0810   11.7490  124.8750 C   0  0  0  0  0  0  0  0  0  0  0  0
   26.6640   12.7840  124.2630 N   0  0  0  0  0  0  0  0  0  0  0  0
   25.4660   11.9330  126.0460 N   0  0  0  0  0  0  0  0  0  0  0  0
   19.3910    8.0710  119.6810 N   0  0  0  0  0  0  0  0  0  0  0  0
   18.4040    7.8640  118.6120 C   0  0  2  0  0  0  0  0  0  0  0  0
   18.9640    7.0360  117.4210 C   0  0  0  0  0  0  0  0  0  0  0  0
   20.1760    6.8670  117.2780 O   0  0  0  0  0  0  0  0  0  0  0  0
   17.8840    9.2150  118.1090 C   0  0  0  0  0  0  0  0  0  0  0  0
   18.9470    9.9180  117.4530 O   0  0  0  0  0  0  0  0  0  0  0  0
   18.0740    6.5290  116.5780 N   0  0  0  0  0  0  0  0  0  0  0  0
   18.4680    5.8880  115.3500 C   0  0  2  0  0  0  0  0  0  0  0  0
   17.5950    6.4560  114.2290 C   0  0  0  0  0  0  0  0  0  0  0  0
   16.6240    5.8650  113.8690 O   0  0  0  0  0  0  0  0  0  0  0  0
   18.2830    4.3710  115.4350 C   0  0  0  0  0  0  0  0  0  0  0  0
   19.2900    3.5200  116.1860 C   0  0  0  0  0  0  0  0  0  0  0  0
   18.8070    2.0700  116.2140 C   0  0  0  0  0  0  0  0  0  0  0  0
   20.6370    3.6050  115.4800 C   0  0  0  0  0  0  0  0  0  0  0  0
   17.9490    7.6410  113.7450 N   0  0  0  0  0  0  0  0  0  0  0  0
   17.2900    8.3660  112.6520 C   0  0  2  0  0  0  0  0  0  0  0  0
   17.5170    7.6080  111.3440 C   0  0  0  0  0  0  0  0  0  0  0  0
   18.6240    7.1320  111.1250 O   0  0  0  0  0  0  0  0  0  0  0  0
   17.9330    9.7880  112.5700 C   0  0  2  0  0  0  0  0  0  0  0  0
   17.6580   10.5540  113.8680 C   0  0  0  0  0  0  0  0  0  0  0  0
   17.4680   10.6040  111.3640 C   0  0  0  0  0  0  0  0  0  0  0  0
   16.2000   10.5220  114.3020 C   0  0  0  0  0  0  0  0  0  0  0  0
   19.3050    9.3590  104.8710 N   0  0  0  0  0  0  0  0  0  0  0  0
   18.7620    9.9830  103.6830 C   0  0  2  0  0  0  0  0  0  0  0  0
   18.7890    8.9760  102.5360 C   0  0  0  0  0  0  0  0  0  0  0  0
   19.7400    8.1810  102.4140 O   0  0  0  0  0  0  0  0  0  0  0  0
   19.5460   11.2550  103.3170 C   0  0  0  0  0  0  0  0  0  0  0  0
   19.3140   12.4170  104.2520 C   0  0  0  0  0  0  0  0  0  0  0  0
   18.0380   12.7020  104.7860 C   0  0  0  0  0  0  0  0  0  0  0  0
   20.3830   13.2770  104.5630 C   0  0  0  0  0  0  0  0  0  0  0  0
   17.8430   13.7850  105.6280 C   0  0  0  0  0  0  0  0  0  0  0  0
   20.1950   14.3570  105.3930 C   0  0  0  0  0  0  0  0  0  0  0  0
   18.9280   14.6160  105.9430 C   0  0  0  0  0  0  0  0  0  0  0  0
   13.7220   11.1430  100.7970 N   0  0  0  0  0  0  0  0  0  0  0  0
   14.0260   11.6740  102.1160 C   0  0  2  0  0  0  0  0  0  0  0  0
   15.4320   12.2720  102.0550 C   0  0  0  0  0  0  0  0  0  0  0  0
   16.4190   11.5570  102.2260 O   0  0  0  0  0  0  0  0  0  0  0  0
   13.9300   10.5750  103.1750 C   0  0  0  0  0  0  0  0  0  0  0  0
   14.4230   10.9800  104.5370 C   0  0  0  0  0  0  0  0  0  0  0  0
   14.0150   12.1960  105.1210 C   0  0  0  0  0  0  0  0  0  0  0  0
   15.3040   10.1500  105.2410 C   0  0  0  0  0  0  0  0  0  0  0  0
   14.4630   12.5760  106.3910 C   0  0  0  0  0  0  0  0  0  0  0  0
   15.7650   10.5210  106.5140 C   0  0  0  0  0  0  0  0  0  0  0  0
   15.3330   11.7290  107.0980 C   0  0  0  0  0  0  0  0  0  0  0  0
   16.3330   15.8100  103.2010 N   0  0  0  0  0  0  0  0  0  0  0  0
   16.6390   16.8970  104.1360 C   0  0  2  0  0  0  0  0  0  0  0  0
   16.0920   16.5670  105.5040 C   0  0  0  0  0  0  0  0  0  0  0  0
   15.0960   15.8150  105.6140 O   0  0  0  0  0  0  0  0  0  0  0  0
   16.1020   18.2960  103.6970 C   0  0  2  0  0  0  0  0  0  0  0  0
   14.6930   18.3660  103.9140 O   0  0  0  0  0  0  0  0  0  0  0  0
   16.4300   18.6340  102.2340 C   0  0  0  0  0  0  0  0  0  0  0  0
   16.7240   17.1190  106.5440 N   0  0  0  0  0  0  0  0  0  0  0  0
   16.2860   16.9320  107.9300 C   0  0  0  0  0  0  0  0  0  0  0  0
   14.8570   17.3690  108.2100 C   0  0  0  0  0  0  0  0  0  0  0  0
   14.1260   16.6830  108.9240 O   0  0  0  0  0  0  0  0  0  0  0  0
   14.4650   18.5020  107.6390 N   0  0  0  0  0  0  0  0  0  0  0  0
   13.0760   19.0250  107.7190 C   0  0  2  0  0  0  0  0  0  0  0  0
   12.0530   17.9580  107.3650 C   0  0  0  0  0  0  0  0  0  0  0  0
   10.9680   17.9080  107.9500 O   0  0  0  0  0  0  0  0  0  0  0  0
   12.8830   20.2090  106.7490 C   0  0  0  0  0  0  0  0  0  0  0  0
   13.4820   21.3730  107.2760 O   0  0  0  0  0  0  0  0  0  0  0  0
   12.4250   17.1080  106.4040 N   0  0  0  0  0  0  0  0  0  0  0  0
   11.5440   16.0340  105.8980 C   0  0  2  0  0  0  0  0  0  0  0  0
   11.2610   14.9240  106.9180 C   0  0  0  0  0  0  0  0  0  0  0  0
   10.3960   14.0500  106.7090 O   0  0  0  0  0  0  0  0  0  0  0  0
   12.1000   15.4610  104.6090 C   0  0  0  0  0  0  0  0  0  0  0  0
   11.8850   16.4160  103.4440 C   0  0  0  0  0  0  0  0  0  0  0  0
   12.6360   15.9930  102.2120 C   0  0  0  0  0  0  0  0  0  0  0  0
   13.2230   14.9140  102.1620 O   0  0  0  0  0  0  0  0  0  0  0  0
   12.6670   16.8710  101.2260 N   0  0  0  0  0  0  0  0  0  0  0  0
   11.9630   14.9820  108.0350 N   0  0  0  0  0  0  0  0  0  0  0  0
   11.7660   14.0170  109.0820 C   0  0  2  0  0  0  0  0  0  0  0  0
   10.4570   14.2700  109.8440 C   0  0  0  0  0  0  0  0  0  0  0  0
   10.0020   13.3890  110.5720 O   0  0  0  0  0  0  0  0  0  0  0  0
   12.9510   14.0690  110.0550 C   0  0  0  0  0  0  0  0  0  0  0  0
   13.1010   12.9750  111.1030 C   0  0  0  0  0  0  0  0  0  0  0  0
   13.2360   11.5790  110.4950 C   0  0  0  0  0  0  0  0  0  0  0  0
   14.2980   13.3160  111.9800 C   0  0  0  0  0  0  0  0  0  0  0  0
    9.8950   15.4770  109.7030 N   0  0  0  0  0  0  0  0  0  0  0  0
    8.7380   15.9030  110.5000 C   0  0  2  0  0  0  0  0  0  0  0  0
    7.4160   15.1710  110.1990 C   0  0  0  0  0  0  0  0  0  0  0  0
    6.6140   14.9960  111.1180 O   0  0  0  0  0  0  0  0  0  0  0  0
    8.5380   17.4290  110.4220 C   0  0  0  0  0  0  0  0  0  0  0  0
    7.1960   14.7610  108.9430 N   0  0  0  0  0  0  0  0  0  0  0  0
    5.8860   14.1950  108.5190 C   0  0  2  0  0  0  0  0  0  0  0  0
    5.9560   12.7220  108.0720 C   0  0  0  0  0  0  0  0  0  0  0  0
    6.8790   12.3310  107.3480 O   0  0  0  0  0  0  0  0  0  0  0  0
    5.2080   15.0640  107.4360 C   0  0  0  0  0  0  0  0  0  0  0  0
    4.9740   16.8210  107.8800 S   0  0  0  0  0  0  0  0  0  0  0  0
    4.9760   11.9210  108.5050 N   0  0  0  0  0  0  0  0  0  0  0  0
    4.9880   10.4710  108.2640 C   0  0  2  0  0  0  0  0  0  0  0  0
    3.6480    9.9720  107.7170 C   0  0  0  0  0  0  0  0  0  0  0  0
    2.5920   10.4560  108.1400 O   0  0  0  0  0  0  0  0  0  0  0  0
    5.2910    9.7400  109.5770 C   0  0  0  0  0  0  0  0  0  0  0  0
    6.5950   10.0850  110.1730 C   0  0  0  0  0  0  0  0  0  0  0  0
    6.9370   11.2680  110.8010 C   0  0  0  0  0  0  0  0  0  0  0  0
    7.7600    9.2540  110.2190 C   0  0  0  0  0  0  0  0  0  0  0  0
    8.2450   11.2090  111.2180 N   0  0  0  0  0  0  0  0  0  0  0  0
    8.7750    9.9920  110.8710 C   0  0  0  0  0  0  0  0  0  0  0  0
    8.0510    7.9590  109.7550 C   0  0  0  0  0  0  0  0  0  0  0  0
   10.0590    9.4750  111.0870 C   0  0  0  0  0  0  0  0  0  0  0  0
    9.3110    7.4420  109.9850 C   0  0  0  0  0  0  0  0  0  0  0  0
   10.3100    8.2120  110.6310 C   0  0  0  0  0  0  0  0  0  0  0  0
    7.4100    8.1300  114.2210 N   0  0  0  0  0  0  0  0  0  0  0  0
    8.8370    8.3500  114.5380 C   0  0  2  0  0  0  0  0  0  0  0  0
    9.2730    7.7810  115.8940 C   0  0  0  0  0  0  0  0  0  0  0  0
   10.4550    7.8420  116.2320 O   0  0  0  0  0  0  0  0  0  0  0  0
    8.9570    9.8770  114.5790 C   0  0  0  0  0  0  0  0  0  0  0  0
    7.5660   10.4010  114.7320 C   0  0  0  0  0  0  0  0  0  0  0  0
    6.5750    9.3230  114.4670 C   0  0  0  0  0  0  0  0  0  0  0  0
   13.5340    6.8450  119.0360 N   0  0  0  0  0  0  0  0  0  0  0  0
   13.9140    7.8530  120.0530 C   0  0  2  0  0  0  0  0  0  0  0  0
   13.9000    7.2630  121.4380 C   0  0  0  0  0  0  0  0  0  0  0  0
   13.1110    6.3350  121.6850 O   0  0  0  0  0  0  0  0  0  0  0  0
   12.9300    9.0270  120.0300 C   0  0  0  0  0  0  0  0  0  0  0  0
   13.1380    9.9560  118.8860 C   0  0  0  0  0  0  0  0  0  0  0  0
   12.7350    9.5980  117.6020 C   0  0  0  0  0  0  0  0  0  0  0  0
   13.7390   11.2010  119.0960 C   0  0  0  0  0  0  0  0  0  0  0  0
   12.9650   10.4560  116.5260 C   0  0  0  0  0  0  0  0  0  0  0  0
   13.9460   12.0710  118.0380 C   0  0  0  0  0  0  0  0  0  0  0  0
   13.5600   11.6950  116.7520 C   0  0  0  0  0  0  0  0  0  0  0  0
    7.5300   13.8840  121.1610 N   0  0  0  0  0  0  0  0  0  0  0  0
    7.4740   13.9930  119.6870 C   0  0  2  0  0  0  0  0  0  0  0  0
    5.9870   13.9940  119.3530 C   0  0  0  0  0  0  0  0  0  0  0  0
    5.3300   12.9490  119.2570 O   0  0  0  0  0  0  0  0  0  0  0  0
    8.2270   12.8530  118.9590 C   0  0  2  0  0  0  0  0  0  0  0  0
    9.6910   12.7480  119.4220 C   0  0  0  0  0  0  0  0  0  0  0  0
    8.1130   12.9780  117.4420 C   0  0  0  0  0  0  0  0  0  0  0  0
   10.6120   13.8680  118.9770 C   0  0  0  0  0  0  0  0  0  0  0  0
    0.8640   12.4330  109.2900 N   0  0  0  0  0  0  0  0  0  0  0  0
    0.9370   13.1810  110.5400 C   0  0  2  0  0  0  0  0  0  0  0  0
    2.2760   13.9030  110.5490 C   0  0  0  0  0  0  0  0  0  0  0  0
    3.2280   13.3790  110.0110 O   0  0  0  0  0  0  0  0  0  0  0  0
    0.8600   12.2430  111.7630 C   0  0  0  0  0  0  0  0  0  0  0  0
    0.7310   12.9360  113.1260 C   0  0  0  0  0  0  0  0  0  0  0  0
   -0.3430   14.0330  113.1650 C   0  0  0  0  0  0  0  0  0  0  0  0
   -1.5230   13.7130  113.4190 O   0  0  0  0  0  0  0  0  0  0  0  0
   -0.0080   15.2280  112.9410 O   0  0  0  0  0  0  0  0  0  0  0  0
    2.3170   15.0970  111.1300 N   0  0  0  0  0  0  0  0  0  0  0  0
    3.5420   15.8740  111.2880 C   0  0  2  0  0  0  0  0  0  0  0  0
    3.7270   16.1140  112.7530 C   0  0  0  0  0  0  0  0  0  0  0  0
    2.7550   16.3540  113.4400 O   0  0  0  0  0  0  0  0  0  0  0  0
    3.4500   17.2020  110.5480 C   0  0  0  0  0  0  0  0  0  0  0  0
    3.1480   16.9580  108.7810 S   0  0  0  0  0  0  0  0  0  0  0  0
    4.9740   16.0360  113.2350 N   0  0  0  0  0  0  0  0  0  0  0  0
    5.2720   16.0690  114.6760 C   0  0  2  0  0  0  0  0  0  0  0  0
    6.2270   17.2210  115.0140 C   0  0  0  0  0  0  0  0  0  0  0  0
    6.9520   17.7130  114.1440 O   0  0  0  0  0  0  0  0  0  0  0  0
    5.8860   14.7380  115.1480 C   0  0  0  0  0  0  0  0  0  0  0  0
    5.0190   13.5140  114.9000 C   0  0  0  0  0  0  0  0  0  0  0  0
    5.0130   12.8680  113.6580 C   0  0  0  0  0  0  0  0  0  0  0  0
    4.2140   12.9990  115.9120 C   0  0  0  0  0  0  0  0  0  0  0  0
    4.2140   11.7510  113.4300 C   0  0  0  0  0  0  0  0  0  0  0  0
    3.4140   11.8720  115.6920 C   0  0  0  0  0  0  0  0  0  0  0  0
    3.4330   11.2540  114.4530 C   0  0  0  0  0  0  0  0  0  0  0  0
    2.6350   10.1560  114.2320 O   0  0  0  0  0  0  0  0  0  0  0  0
    6.1890   17.6530  116.2690 N   0  0  0  0  0  0  0  0  0  0  0  0
    7.1000   18.6780  116.7710 C   0  0  2  0  0  0  0  0  0  0  0  0
    7.7290   18.2110  118.0730 C   0  0  0  0  0  0  0  0  0  0  0  0
    7.1390   17.4570  118.8340 O   0  0  0  0  0  0  0  0  0  0  0  0
    6.3930   20.0380  116.9770 C   0  0  0  0  0  0  0  0  0  0  0  0
    5.2770   20.0330  118.0130 C   0  0  0  0  0  0  0  0  0  0  0  0
    5.2530   21.3280  118.8180 C   0  0  0  0  0  0  0  0  0  0  0  0
    4.7860   21.0940  120.1890 N   0  0  0  0  0  0  0  0  0  0  0  0
    3.8340   21.7960  120.8210 C   0  0  0  0  0  0  0  0  0  0  0  0
    3.2290   22.8140  120.2290 N   0  0  0  0  0  0  0  0  0  0  0  0
    3.4910   21.4830  122.0640 N   0  0  0  0  0  0  0  0  0  0  0  0
    8.9490   18.6690  118.2990 N   0  0  0  0  0  0  0  0  0  0  0  0
    9.6840   18.4190  119.5220 C   0  0  2  0  0  0  0  0  0  0  0  0
    9.0780   19.2390  120.6570 C   0  0  0  0  0  0  0  0  0  0  0  0
    8.9810   20.4640  120.5500 O   0  0  0  0  0  0  0  0  0  0  0  0
   11.1190   18.8600  119.2410 C   0  0  0  0  0  0  0  0  0  0  0  0
   12.1330   18.3060  120.1780 C   0  0  0  0  0  0  0  0  0  0  0  0
   12.2390   16.9400  120.3880 C   0  0  0  0  0  0  0  0  0  0  0  0
   13.0390   19.1630  120.8190 C   0  0  0  0  0  0  0  0  0  0  0  0
   13.1910   16.4300  121.2470 C   0  0  0  0  0  0  0  0  0  0  0  0
   14.0030   18.6500  121.6730 C   0  0  0  0  0  0  0  0  0  0  0  0
   14.0760   17.2800  121.8840 C   0  0  0  0  0  0  0  0  0  0  0  0
  2  1  1  1
  3  2  1  0
  4  3  2  0
  5  2  1  0
  6  5  1  0
  7  6  2  0
  8  6  1  0
  9  7  1  0
 10  8  2  0
 11  9  2  0
 11 10  1  0
 13 12  1  1
 14 13  1  0
 15 14  2  0
 16 13  1  0
 17 16  1  0
 18 16  1  0
 19 14  1  0
 20 19  1  0
 21 20  1  0
 22 21  2  0
 20 23  1  1
 24 23  1  0
 25 24  1  0
 26 25  2  0
 27 25  1  0
 29 28  1  1
 30 29  1  0
 31 30  2  0
 32 29  1  0
 33 32  1  0
 34 32  1  0
 35 30  1  0
 36 35  1  0
 37 36  1  0
 38 37  2  0
 36 39  1  1
 40 37  1  0
 41 40  1  0
 42 41  1  0
 43 42  2  0
 41 44  1  1
 45 44  1  0
 46 45  1  0
 47 46  1  0
 48 47  1  0
 49 48  1  0
 50 48  2  0
 52 51  1  1
 53 52  1  0
 54 53  2  0
 55 52  1  0
 56 55  1  0
 57 53  1  0
 58 57  1  0
 59 58  1  0
 60 59  2  0
 58 61  1  1
 62 61  1  0
 63 62  1  0
 64 62  1  0
 65 59  1  0
 66 65  1  1
 67 66  1  0
 68 67  2  0
 69 66  1  0
 70 69  1  0
 69 71  1  6
 72 70  1  0
 74 73  1  1
 75 74  1  0
 76 75  2  0
 77 74  1  0
 78 77  1  0
 79 78  2  0
 80 78  1  0
 81 79  1  0
 82 80  2  0
 83 82  1  0
 83 81  2  0
 85 84  1  6
 86 85  1  0
 87 86  2  0
 88 85  1  0
 89 88  1  0
 90 89  2  0
 91 89  1  0
 92 90  1  0
 93 91  2  0
 94 93  1  0
 94 92  2  0
 96 95  1  6
 97 96  1  0
 98 97  2  0
 99 96  1  0
100 99  1  0
 99101  1  6
102 97  1  0
103102  1  0
104103  1  0
105104  2  0
106104  1  0
107106  1  0
108107  1  0
109108  2  0
107110  1  6
111110  1  0
112108  1  0
113112  1  0
114113  1  0
115114  2  0
113116  1  6
117116  1  0
118117  1  0
119118  2  0
120118  1  0
121114  1  0
122121  1  0
123122  1  0
124123  2  0
122125  1  1
126125  1  0
127126  1  0
128126  1  0
129123  1  0
130129  1  0
131130  1  0
132131  2  0
130133  1  6
134131  1  0
135134  1  0
136135  1  0
137136  2  0
135138  1  6
139138  1  0
140136  1  0
141140  1  0
142141  1  0
143142  2  0
141144  1  1
145144  1  0
146145  2  0
147145  1  0
148146  1  0
149147  2  0
149148  1  0
150147  1  0
151149  1  0
152150  2  0
153152  1  0
153151  2  0
155154  1  0
155156  1  1
157156  2  0
158155  1  0
159158  1  0
160154  1  0
160159  1  0
162161  1  6
163162  1  0
164163  2  0
165162  1  0
166165  1  0
167166  2  0
168166  1  0
169167  1  0
170168  2  0
171169  2  0
171170  1  0
173172  1  1
174173  1  0
175174  2  0
176173  1  0
177176  1  0
176178  1  6
179177  1  0
181180  1  6
182181  1  0
183182  2  0
184181  1  0
185184  1  0
186185  1  0
187186  2  0
188186  1  0
189182  1  0
190189  1  0
191190  1  0
192191  2  0
190193  1  6
194139  1  0
194193  1  0
195191  1  0
196195  1  0
197196  1  0
198197  2  0
196199  1  6
200199  1  0
201200  2  0
202200  1  0
203201  1  0
204202  2  0
205203  2  0
205204  1  0
206205  1  0
207197  1  0
208207  1  0
209208  1  0
210209  2  0
208211  1  1
212211  1  0
213212  1  0
214213  1  0
215214  1  0
216215  1  0
217215  2  0
218209  1  0
219218  1  0
220219  1  0
221220  2  0
219222  1  6
223222  1  0
224223  2  0
225223  1  0
226224  1  0
227225  2  0
228227  1  0
228226  2  0
M  END
$$$$
