
     RDKit          3D

217216  0  0  0  0  0  0  0  0999 V2000
   28.6710   23.2560  140.2340 N   0  0  0  0  0  0  0  0  0  0  0  0
   30.0380   23.7620  140.0490 C   0  0  2  0  0  0  0  0  0  0  0  0
   30.9800   22.6740  139.5180 C   0  0  0  0  0  0  0  0  0  0  0  0
   31.6720   22.9140  138.5280 O   0  0  0  0  0  0  0  0  0  0  0  0
   30.6150   24.3820  141.3270 C   0  0  0  0  0  0  0  0  0  0  0  0
   32.0120   24.9260  141.1550 C   0  0  0  0  0  0  0  0  0  0  0  0
   32.2130   26.2160  140.6610 C   0  0  0  0  0  0  0  0  0  0  0  0
   33.1210   24.1430  141.4640 C   0  0  0  0  0  0  0  0  0  0  0  0
   33.4970   26.7160  140.4780 C   0  0  0  0  0  0  0  0  0  0  0  0
   34.4140   24.6360  141.3020 C   0  0  0  0  0  0  0  0  0  0  0  0
   34.5990   25.9290  140.8060 C   0  0  0  0  0  0  0  0  0  0  0  0
   32.9880   22.8220  135.8610 N   0  0  0  0  0  0  0  0  0  0  0  0
   34.4470   22.9280  135.6760 C   0  0  2  0  0  0  0  0  0  0  0  0
   35.0140   21.6750  135.0060 C   0  0  0  0  0  0  0  0  0  0  0  0
   35.9850   21.7650  134.2560 O   0  0  0  0  0  0  0  0  0  0  0  0
   35.2130   23.2840  136.9760 C   0  0  0  0  0  0  0  0  0  0  0  0
   34.8360   24.6840  137.4520 C   0  0  0  0  0  0  0  0  0  0  0  0
   35.0040   22.2380  138.0640 C   0  0  0  0  0  0  0  0  0  0  0  0
   34.3880   20.5240  135.2730 N   0  0  0  0  0  0  0  0  0  0  0  0
   34.6090   19.2840  134.5060 C   0  0  2  0  0  0  0  0  0  0  0  0
   34.3900   19.5420  133.0080 C   0  0  0  0  0  0  0  0  0  0  0  0
   35.2660   19.2560  132.1850 O   0  0  0  0  0  0  0  0  0  0  0  0
   33.6530   18.1960  135.0060 C   0  0  0  0  0  0  0  0  0  0  0  0
   34.0820   16.7600  134.7850 C   0  0  0  0  0  0  0  0  0  0  0  0
   34.0040   15.9260  136.0690 C   0  0  0  0  0  0  0  0  0  0  0  0
   33.9490   16.5140  137.1760 O   0  0  0  0  0  0  0  0  0  0  0  0
   34.0210   14.6770  135.9900 O   0  0  0  0  0  0  0  0  0  0  0  0
   34.2670   22.4790  131.4460 N   0  0  0  0  0  0  0  0  0  0  0  0
   35.2110   23.4980  130.9840 C   0  0  2  0  0  0  0  0  0  0  0  0
   36.5640   22.8630  130.6540 C   0  0  0  0  0  0  0  0  0  0  0  0
   37.1280   23.1530  129.6160 O   0  0  0  0  0  0  0  0  0  0  0  0
   35.3530   24.6670  132.0040 C   0  0  0  0  0  0  0  0  0  0  0  0
   36.5500   25.5540  131.6850 C   0  0  0  0  0  0  0  0  0  0  0  0
   34.0750   25.4950  132.0420 C   0  0  0  0  0  0  0  0  0  0  0  0
   37.0500   21.9800  131.5290 N   0  0  0  0  0  0  0  0  0  0  0  0
   38.2910   21.2370  131.3020 C   0  0  2  0  0  0  0  0  0  0  0  0
   38.2360   20.3430  130.0610 C   0  0  0  0  0  0  0  0  0  0  0  0
   39.2470   20.1730  129.3990 O   0  0  0  0  0  0  0  0  0  0  0  0
   38.6490   20.3950  132.5180 C   0  0  0  0  0  0  0  0  0  0  0  0
   38.0360   23.2670  126.9940 N   0  0  0  0  0  0  0  0  0  0  0  0
   39.1010   24.2870  126.8460 C   0  0  2  0  0  0  0  0  0  0  0  0
   40.3590   23.7510  126.1450 C   0  0  0  0  0  0  0  0  0  0  0  0
   40.5430   22.5370  126.0300 O   0  0  0  0  0  0  0  0  0  0  0  0
   39.4940   24.8540  128.2190 C   0  0  0  0  0  0  0  0  0  0  0  0
   40.1110   23.8280  128.9830 O   0  0  0  0  0  0  0  0  0  0  0  0
   41.2080   24.6540  125.6700 N   0  0  0  0  0  0  0  0  0  0  0  0
   42.4660   24.2720  125.0500 C   0  0  2  0  0  0  0  0  0  0  0  0
   43.6220   25.0650  125.6620 C   0  0  0  0  0  0  0  0  0  0  0  0
   43.9450   26.1410  125.2300 O   0  0  0  0  0  0  0  0  0  0  0  0
   42.4000   24.4560  123.5300 C   0  0  0  0  0  0  0  0  0  0  0  0
   41.6400   23.3930  122.7500 C   0  0  0  0  0  0  0  0  0  0  0  0
   41.4590   23.8020  121.2910 C   0  0  0  0  0  0  0  0  0  0  0  0
   42.3580   22.0580  122.8620 C   0  0  0  0  0  0  0  0  0  0  0  0
   44.1970   24.5080  126.7100 N   0  0  0  0  0  0  0  0  0  0  0  0
   45.1860   25.1350  127.5650 C   0  0  2  0  0  0  0  0  0  0  0  0
   46.5340   24.8950  126.8880 C   0  0  0  0  0  0  0  0  0  0  0  0
   46.7940   23.7940  126.4220 O   0  0  0  0  0  0  0  0  0  0  0  0
   45.1040   24.4660  128.9830 C   0  0  2  0  0  0  0  0  0  0  0  0
   43.8200   24.9080  129.6930 C   0  0  0  0  0  0  0  0  0  0  0  0
   46.2930   24.7860  129.8750 C   0  0  0  0  0  0  0  0  0  0  0  0
   43.5940   26.4110  129.6340 C   0  0  0  0  0  0  0  0  0  0  0  0
   52.8370   23.1430  128.8390 N   0  0  0  0  0  0  0  0  0  0  0  0
   54.0340   23.6880  129.4750 C   0  0  2  0  0  0  0  0  0  0  0  0
   55.2320   23.6620  128.5290 C   0  0  0  0  0  0  0  0  0  0  0  0
   55.3590   22.7570  127.6970 O   0  0  0  0  0  0  0  0  0  0  0  0
   54.4070   22.9370  130.7570 C   0  0  0  0  0  0  0  0  0  0  0  0
   53.4360   23.1090  131.8930 C   0  0  0  0  0  0  0  0  0  0  0  0
   52.8740   24.3590  132.1930 C   0  0  0  0  0  0  0  0  0  0  0  0
   53.0970   22.0060  132.6910 C   0  0  0  0  0  0  0  0  0  0  0  0
   51.9700   24.5010  133.2390 C   0  0  0  0  0  0  0  0  0  0  0  0
   52.2020   22.1490  133.7490 C   0  0  0  0  0  0  0  0  0  0  0  0
   51.6540   23.3990  134.0240 C   0  0  0  0  0  0  0  0  0  0  0  0
   56.8150   28.7660  130.7790 N   0  0  0  0  0  0  0  0  0  0  0  0
   55.4650   28.4370  131.2640 C   0  0  2  0  0  0  0  0  0  0  0  0
   55.5310   26.9890  131.8100 C   0  0  0  0  0  0  0  0  0  0  0  0
   55.3780   26.0150  131.0620 O   0  0  0  0  0  0  0  0  0  0  0  0
   54.4280   28.6110  130.1460 C   0  0  0  0  0  0  0  0  0  0  0  0
   53.0590   28.0740  130.4820 C   0  0  0  0  0  0  0  0  0  0  0  0
   52.4040   28.4650  131.6420 C   0  0  0  0  0  0  0  0  0  0  0  0
   52.4260   27.1640  129.6230 C   0  0  0  0  0  0  0  0  0  0  0  0
   51.1340   27.9760  131.9490 C   0  0  0  0  0  0  0  0  0  0  0  0
   51.1720   26.6680  129.9260 C   0  0  0  0  0  0  0  0  0  0  0  0
   50.5230   27.0690  131.0960 C   0  0  0  0  0  0  0  0  0  0  0  0
   54.2950   26.1000  135.3130 N   0  0  0  0  0  0  0  0  0  0  0  0
   53.3100   25.8260  136.3780 C   0  0  2  0  0  0  0  0  0  0  0  0
   51.9380   26.3340  135.9830 C   0  0  0  0  0  0  0  0  0  0  0  0
   51.8100   27.2920  135.2140 O   0  0  0  0  0  0  0  0  0  0  0  0
   53.6540   26.4190  137.8030 C   0  0  2  0  0  0  0  0  0  0  0  0
   53.4190   27.8370  137.8460 O   0  0  0  0  0  0  0  0  0  0  0  0
   55.0540   26.0870  138.2370 C   0  0  0  0  0  0  0  0  0  0  0  0
   50.9020   25.6730  136.4880 N   0  0  0  0  0  0  0  0  0  0  0  0
   49.5380   26.1510  136.3050 C   0  0  0  0  0  0  0  0  0  0  0  0
   49.2890   27.6090  136.6930 C   0  0  0  0  0  0  0  0  0  0  0  0
   48.5690   28.3300  135.9700 O   0  0  0  0  0  0  0  0  0  0  0  0
   49.9040   28.0440  137.7930 N   0  0  0  0  0  0  0  0  0  0  0  0
   49.6780   29.3930  138.3410 C   0  0  2  0  0  0  0  0  0  0  0  0
   50.0230   30.4480  137.3020 C   0  0  0  0  0  0  0  0  0  0  0  0
   49.3860   31.5080  137.2310 O   0  0  0  0  0  0  0  0  0  0  0  0
   50.5070   29.6240  139.6050 C   0  0  0  0  0  0  0  0  0  0  0  0
   49.9690   28.8850  140.6880 O   0  0  0  0  0  0  0  0  0  0  0  0
   51.0120   30.1110  136.4810 N   0  0  0  0  0  0  0  0  0  0  0  0
   51.5590   31.0140  135.4650 C   0  0  2  0  0  0  0  0  0  0  0  0
   50.6090   31.2410  134.3140 C   0  0  0  0  0  0  0  0  0  0  0  0
   50.8520   32.0950  133.4710 O   0  0  0  0  0  0  0  0  0  0  0  0
   52.8870   30.4860  134.9730 C   0  0  0  0  0  0  0  0  0  0  0  0
   53.9670   30.6620  136.0310 C   0  0  0  0  0  0  0  0  0  0  0  0
   55.2410   29.9500  135.6660 C   0  0  0  0  0  0  0  0  0  0  0  0
   55.3890   29.4710  134.5520 O   0  0  0  0  0  0  0  0  0  0  0  0
   56.1560   29.8530  136.6100 N   0  0  0  0  0  0  0  0  0  0  0  0
   49.5200   30.4910  134.2830 N   0  0  0  0  0  0  0  0  0  0  0  0
   48.5280   30.6820  133.2570 C   0  0  2  0  0  0  0  0  0  0  0  0
   47.7610   31.9920  133.4490 C   0  0  0  0  0  0  0  0  0  0  0  0
   47.0910   32.4440  132.5150 O   0  0  0  0  0  0  0  0  0  0  0  0
   47.5520   29.5190  133.2410 C   0  0  0  0  0  0  0  0  0  0  0  0
   46.6540   29.3980  132.0170 C   0  0  0  0  0  0  0  0  0  0  0  0
   47.4440   29.3530  130.7000 C   0  0  0  0  0  0  0  0  0  0  0  0
   45.7790   28.1890  132.1770 C   0  0  0  0  0  0  0  0  0  0  0  0
   47.8610   32.5810  134.6490 N   0  0  0  0  0  0  0  0  0  0  0  0
   47.0470   33.7330  135.0360 C   0  0  2  0  0  0  0  0  0  0  0  0
   47.3640   35.0420  134.3120 C   0  0  0  0  0  0  0  0  0  0  0  0
   46.4330   35.7860  134.0070 O   0  0  0  0  0  0  0  0  0  0  0  0
   47.0690   33.9610  136.5480 C   0  0  0  0  0  0  0  0  0  0  0  0
   48.6430   35.3360  134.0670 N   0  0  0  0  0  0  0  0  0  0  0  0
   49.0300   36.6050  133.4350 C   0  0  2  0  0  0  0  0  0  0  0  0
   49.5370   36.4570  131.9740 C   0  0  0  0  0  0  0  0  0  0  0  0
   50.1890   35.4720  131.6330 O   0  0  0  0  0  0  0  0  0  0  0  0
   50.0580   37.3350  134.3060 C   0  0  0  0  0  0  0  0  0  0  0  0
   49.5910   37.4460  136.0500 S   0  0  0  0  0  0  0  0  0  0  0  0
   49.2410   37.4450  131.1320 N   0  0  0  0  0  0  0  0  0  0  0  0
   49.5320   37.3960  129.7000 C   0  0  2  0  0  0  0  0  0  0  0  0
   50.1460   38.7230  129.2460 C   0  0  0  0  0  0  0  0  0  0  0  0
   49.7510   39.7790  129.7190 O   0  0  0  0  0  0  0  0  0  0  0  0
   48.2380   37.1230  128.8990 C   0  0  0  0  0  0  0  0  0  0  0  0
   47.5920   35.8010  129.2240 C   0  0  0  0  0  0  0  0  0  0  0  0
   46.8820   35.4910  130.3570 C   0  0  0  0  0  0  0  0  0  0  0  0
   47.6210   34.5980  128.4280 C   0  0  0  0  0  0  0  0  0  0  0  0
   46.4800   34.1830  130.3190 N   0  0  0  0  0  0  0  0  0  0  0  0
   46.9170   33.6070  129.1500 C   0  0  0  0  0  0  0  0  0  0  0  0
   48.1690   34.2670  127.1770 C   0  0  0  0  0  0  0  0  0  0  0  0
   46.7320   32.2960  128.6560 C   0  0  0  0  0  0  0  0  0  0  0  0
   48.0040   32.9630  126.6910 C   0  0  0  0  0  0  0  0  0  0  0  0
   47.2850   31.9950  127.4330 C   0  0  0  0  0  0  0  0  0  0  0  0
   43.6660   35.0860  127.0100 N   0  0  0  0  0  0  0  0  0  0  0  0
   43.3240   33.6780  127.2270 C   0  0  2  0  0  0  0  0  0  0  0  0
   41.9700   33.2680  126.6270 C   0  0  0  0  0  0  0  0  0  0  0  0
   41.6330   32.0800  126.6270 O   0  0  0  0  0  0  0  0  0  0  0  0
   43.2450   33.5890  128.7630 C   0  0  0  0  0  0  0  0  0  0  0  0
   42.7970   34.9580  129.1800 C   0  0  0  0  0  0  0  0  0  0  0  0
   43.5080   35.8900  128.2450 C   0  0  0  0  0  0  0  0  0  0  0  0
   38.8050   29.1320  125.7650 N   0  0  0  0  0  0  0  0  0  0  0  0
   37.7500   28.7710  126.7020 C   0  0  2  0  0  0  0  0  0  0  0  0
   36.3840   28.7200  126.0420 C   0  0  0  0  0  0  0  0  0  0  0  0
   36.1460   29.4330  125.0780 O   0  0  0  0  0  0  0  0  0  0  0  0
   37.7450   29.7610  127.8680 C   0  0  0  0  0  0  0  0  0  0  0  0
   38.8580   29.5220  128.8400 C   0  0  0  0  0  0  0  0  0  0  0  0
   40.1250   30.0300  128.6040 C   0  0  0  0  0  0  0  0  0  0  0  0
   38.6410   28.7630  129.9770 C   0  0  0  0  0  0  0  0  0  0  0  0
   41.1600   29.7960  129.4950 C   0  0  0  0  0  0  0  0  0  0  0  0
   39.6680   28.5270  130.8820 C   0  0  0  0  0  0  0  0  0  0  0  0
   40.9350   29.0380  130.6370 C   0  0  0  0  0  0  0  0  0  0  0  0
   36.3420   35.1750  132.5150 N   0  0  0  0  0  0  0  0  0  0  0  0
   37.7960   35.1950  132.7170 C   0  0  2  0  0  0  0  0  0  0  0  0
   38.1620   36.6710  132.8360 C   0  0  0  0  0  0  0  0  0  0  0  0
   38.3470   37.3620  131.8300 O   0  0  0  0  0  0  0  0  0  0  0  0
   38.5920   34.5190  131.5830 C   0  0  2  0  0  0  0  0  0  0  0  0
   38.1630   33.0490  131.3700 C   0  0  0  0  0  0  0  0  0  0  0  0
   40.0890   34.6410  131.8410 C   0  0  0  0  0  0  0  0  0  0  0  0
   38.5960   32.0650  132.4490 C   0  0  0  0  0  0  0  0  0  0  0  0
   48.3220   41.6260  131.4660 N   0  0  0  0  0  0  0  0  0  0  0  0
   47.0920   41.5130  132.2440 C   0  0  2  0  0  0  0  0  0  0  0  0
   47.1230   40.1930  133.0370 C   0  0  0  0  0  0  0  0  0  0  0  0
   47.7900   39.2540  132.6170 O   0  0  0  0  0  0  0  0  0  0  0  0
   45.8640   41.6370  131.3210 C   0  0  0  0  0  0  0  0  0  0  0  0
   44.5140   41.7570  132.0300 C   0  0  0  0  0  0  0  0  0  0  0  0
   44.4500   42.8950  133.0470 C   0  0  0  0  0  0  0  0  0  0  0  0
   44.1700   44.0360  132.6320 O   0  0  0  0  0  0  0  0  0  0  0  0
   44.6680   42.6530  134.2630 O   0  0  0  0  0  0  0  0  0  0  0  0
   46.5020   40.1820  134.2120 N   0  0  0  0  0  0  0  0  0  0  0  0
   46.2470   38.9610  134.9900 C   0  0  2  0  0  0  0  0  0  0  0  0
   44.7430   38.8060  135.1150 C   0  0  0  0  0  0  0  0  0  0  0  0
   44.0390   39.7910  135.2420 O   0  0  0  0  0  0  0  0  0  0  0  0
   46.8900   39.0170  136.3770 C   0  0  0  0  0  0  0  0  0  0  0  0
   48.6840   39.2770  136.3220 S   0  0  0  0  0  0  0  0  0  0  0  0
   44.2600   37.5680  135.0800 N   0  0  0  0  0  0  0  0  0  0  0  0
   42.8140   37.2870  135.0590 C   0  0  2  0  0  0  0  0  0  0  0  0
   42.4260   36.3040  136.1740 C   0  0  0  0  0  0  0  0  0  0  0  0
   43.2630   35.5690  136.6560 O   0  0  0  0  0  0  0  0  0  0  0  0
   42.4260   36.6620  133.7250 C   0  0  0  0  0  0  0  0  0  0  0  0
   42.7280   37.5050  132.5100 C   0  0  0  0  0  0  0  0  0  0  0  0
   44.0050   37.5280  131.9480 C   0  0  0  0  0  0  0  0  0  0  0  0
   41.7230   38.2640  131.9170 C   0  0  0  0  0  0  0  0  0  0  0  0
   44.2740   38.2970  130.8200 C   0  0  0  0  0  0  0  0  0  0  0  0
   41.9750   39.0260  130.7920 C   0  0  0  0  0  0  0  0  0  0  0  0
   43.2560   39.0400  130.2550 C   0  0  0  0  0  0  0  0  0  0  0  0
   43.4890   39.8030  129.1390 O   0  0  0  0  0  0  0  0  0  0  0  0
   41.1510   36.2960  136.5530 N   0  0  0  0  0  0  0  0  0  0  0  0
   40.6300   35.3580  137.5510 C   0  0  2  0  0  0  0  0  0  0  0  0
   39.3850   34.6970  136.9830 C   0  0  0  0  0  0  0  0  0  0  0  0
   38.7070   35.2640  136.1400 O   0  0  0  0  0  0  0  0  0  0  0  0
   40.2670   36.0630  138.8730 C   0  0  0  0  0  0  0  0  0  0  0  0
   39.2310   37.1740  138.7020 C   0  0  0  0  0  0  0  0  0  0  0  0
   38.3130   37.3800  139.9070 C   0  0  0  0  0  0  0  0  0  0  0  0
   37.2190   38.3010  139.5550 N   0  0  0  0  0  0  0  0  0  0  0  0
   36.3960   38.8920  140.4290 C   0  0  0  0  0  0  0  0  0  0  0  0
   36.5290   38.6720  141.7360 N   0  0  0  0  0  0  0  0  0  0  0  0
   35.4330   39.7100  139.9920 N   0  0  0  0  0  0  0  0  0  0  0  0
   39.1000   33.4990  137.4740 N   0  0  0  0  0  0  0  0  0  0  0  0
   37.9180   32.7430  137.1040 C   0  0  2  0  0  0  0  0  0  0  0  0
   36.6990   33.3360  137.8150 C   0  0  0  0  0  0  0  0  0  0  0  0
   36.6600   33.4230  139.0270 O   0  0  0  0  0  0  0  0  0  0  0  0
   38.1540   31.2780  137.5130 C   0  0  0  0  0  0  0  0  0  0  0  0
   37.2160   30.2990  136.8700 C   0  0  0  0  0  0  0  0  0  0  0  0
   37.0850   30.2360  135.4930 C   0  0  0  0  0  0  0  0  0  0  0  0
   36.4870   29.4190  137.6520 C   0  0  0  0  0  0  0  0  0  0  0  0
   36.2280   29.3290  134.9060 C   0  0  0  0  0  0  0  0  0  0  0  0
   35.6270   28.5010  137.0740 C   0  0  0  0  0  0  0  0  0  0  0  0
   35.4950   28.4580  135.6950 C   0  0  0  0  0  0  0  0  0  0  0  0
  2  1  1  1
  3  2  1  0
  4  3  2  0
  5  2  1  0
  6  5  1  0
  7  6  2  0
  8  6  1  0
  9  7  1  0
 10  8  2  0
 11 10  1  0
 11  9  2  0
 13 12  1  1
 14 13  1  0
 15 14  2  0
 16 13  1  0
 17 16  1  0
 18 16  1  0
 19 14  1  0
 20 19  1  0
 21 20  1  0
 22 21  2  0
 20 23  1  1
 24 23  1  0
 25 24  1  0
 26 25  2  0
 27 25  1  0
 29 28  1  1
 30 29  1  0
 31 30  2  0
 32 29  1  0
 33 32  1  0
 34 32  1  0
 35 30  1  0
 36 35  1  0
 37 36  1  0
 38 37  2  0
 36 39  1  1
 41 40  1  1
 42 41  1  0
 43 42  2  0
 44 41  1  0
 45 44  1  0
 46 42  1  0
 47 46  1  0
 48 47  1  0
 49 48  2  0
 47 50  1  6
 51 50  1  0
 52 51  1  0
 53 51  1  0
 54 48  1  0
 55 54  1  6
 56 55  1  0
 57 56  2  0
 58 55  1  0
 59 58  1  0
 58 60  1  1
 61 59  1  0
 63 62  1  6
 64 63  1  0
 65 64  2  0
 66 63  1  0
 67 66  1  0
 68 67  2  0
 69 67  1  0
 70 68  1  0
 71 69  2  0
 72 71  1  0
 72 70  2  0
 74 73  1  6
 75 74  1  0
 76 75  2  0
 77 74  1  0
 78 77  1  0
 79 78  2  0
 80 78  1  0
 81 79  1  0
 82 80  2  0
 83 82  1  0
 83 81  2  0
 85 84  1  6
 86 85  1  0
 87 86  2  0
 88 85  1  0
 89 88  1  0
 88 90  1  6
 91 86  1  0
 92 91  1  0
 93 92  1  0
 94 93  2  0
 95 93  1  0
 96 95  1  0
 97 96  1  0
 98 97  2  0
 96 99  1  1
100 99  1  0
101 97  1  0
102101  1  0
103102  1  0
104103  2  0
102105  1  6
106105  1  0
107106  1  0
108107  2  0
109107  1  0
110103  1  0
111110  1  0
112111  1  0
113112  2  0
111114  1  1
115114  1  0
116115  1  0
117115  1  0
118112  1  0
119118  1  0
120119  1  0
121120  2  0
119122  1  1
123120  1  0
124123  1  0
125124  1  0
126125  2  0
124127  1  1
128127  1  0
129125  1  0
130129  1  0
131130  1  0
132131  2  0
130133  1  6
134133  1  0
135134  2  0
136134  1  0
137135  1  0
138137  1  0
138136  2  0
139136  1  0
140138  1  0
141139  2  0
142140  2  0
142141  1  0
144143  1  0
144145  1  6
146145  2  0
147144  1  0
148147  1  0
149148  1  0
149143  1  0
151150  1  6
152151  1  0
153152  2  0
154151  1  0
155154  1  0
156155  2  0
157155  1  0
158156  1  0
159157  2  0
160158  2  0
160159  1  0
162161  1  6
163162  1  0
164163  2  0
165162  1  0
166165  1  0
165167  1  1
168166  1  0
170169  1  6
171170  1  0
172171  2  0
173170  1  0
174173  1  0
175174  1  0
176175  2  0
177175  1  0
178171  1  0
179178  1  0
180179  1  0
181180  2  0
179182  1  1
183182  1  0
183128  1  0
184180  1  0
185184  1  0
186185  1  0
187186  2  0
185188  1  6
189188  1  0
190189  2  0
191189  1  0
192190  1  0
193191  2  0
194193  1  0
194192  2  0
195194  1  0
196186  1  0
197196  1  0
198197  1  0
199198  2  0
197200  1  1
201200  1  0
202201  1  0
203202  1  0
204203  1  0
205204  1  0
206204  2  0
207198  1  0
208207  1  0
209208  1  0
210209  2  0
208211  1  1
212211  1  0
213212  2  0
214212  1  0
215213  1  0
216214  2  0
217215  2  0
217216  1  0
M  END
$$$$
