
     RDKit          3D

154155  0  0  0  0  0  0  0  0999 V2000
  178.7620  196.9080  139.0720 N   0  0  0  0  0  0  0  0  0  0  0  0
  179.6720  196.6470  137.9570 C   0  0  2  0  0  0  0  0  0  0  0  0
  180.1830  197.9190  137.3340 C   0  0  0  0  0  0  0  0  0  0  0  0
  181.1370  197.9240  136.5730 O   0  0  0  0  0  0  0  0  0  0  0  0
  179.0660  195.7020  136.8850 C   0  0  0  0  0  0  0  0  0  0  0  0
  179.0750  194.2060  137.2480 C   0  0  0  0  0  0  0  0  0  0  0  0
  180.3370  193.6610  138.4580 S   0  0  0  0  0  0  0  0  0  0  0  0
  181.6570  193.2410  137.3120 C   0  0  0  0  0  0  0  0  0  0  0  0
  179.1310  186.2160  135.1160 N   0  0  0  0  0  0  0  0  0  0  0  0
  180.0230  186.7990  134.1540 C   0  0  2  0  0  0  0  0  0  0  0  0
  180.9960  187.6980  134.9190 C   0  0  0  0  0  0  0  0  0  0  0  0
  180.6150  188.6090  135.6520 O   0  0  0  0  0  0  0  0  0  0  0  0
  179.1870  187.6220  133.1580 C   0  0  0  0  0  0  0  0  0  0  0  0
  180.0300  187.8970  131.9900 C   0  0  0  0  0  0  0  0  0  0  0  0
  181.1570  188.7060  132.1100 N   0  0  0  0  0  0  0  0  0  0  0  0
  179.9720  187.3880  130.7370 C   0  0  0  0  0  0  0  0  0  0  0  0
  181.7410  188.7060  130.9280 C   0  0  0  0  0  0  0  0  0  0  0  0
  181.0540  187.9230  130.0770 N   0  0  0  0  0  0  0  0  0  0  0  0
  182.2640  187.4150  134.7720 N   0  0  0  0  0  0  0  0  0  0  0  0
  183.3620  188.1320  135.4350 C   0  0  2  0  0  0  0  0  0  0  0  0
  183.3700  189.6390  135.1390 C   0  0  0  0  0  0  0  0  0  0  0  0
  183.8200  190.4890  135.9300 O   0  0  0  0  0  0  0  0  0  0  0  0
  184.6240  187.5070  134.8240 C   0  0  0  0  0  0  0  0  0  0  0  0
  184.1890  186.8630  133.5010 C   0  0  0  0  0  0  0  0  0  0  0  0
  182.6670  186.7620  133.5020 C   0  0  0  0  0  0  0  0  0  0  0  0
  182.8850  189.9620  133.9460 N   0  0  0  0  0  0  0  0  0  0  0  0
  182.8060  191.3430  133.5180 C   0  0  2  0  0  0  0  0  0  0  0  0
  181.4820  191.9890  133.7760 C   0  0  0  0  0  0  0  0  0  0  0  0
  181.4490  193.0940  134.2900 O   0  0  0  0  0  0  0  0  0  0  0  0
  183.1350  191.5130  132.0450 C   0  0  0  0  0  0  0  0  0  0  0  0
  184.6320  191.4210  131.9340 C   0  0  0  0  0  0  0  0  0  0  0  0
  185.0100  190.9420  130.5430 C   0  0  0  0  0  0  0  0  0  0  0  0
  185.2590  192.7540  132.3300 C   0  0  0  0  0  0  0  0  0  0  0  0
  180.4110  191.2800  133.4080 N   0  0  0  0  0  0  0  0  0  0  0  0
  179.0690  191.7640  133.5430 C   0  0  2  0  0  0  0  0  0  0  0  0
  178.3820  191.4500  134.8310 C   0  0  0  0  0  0  0  0  0  0  0  0
  177.2340  191.8310  134.9970 O   0  0  0  0  0  0  0  0  0  0  0  0
  178.2910  191.1830  132.4070 C   0  0  0  0  0  0  0  0  0  0  0  0
  178.9730  191.6710  131.1850 C   0  0  0  0  0  0  0  0  0  0  0  0
  179.1250  190.8790  130.0520 N   0  0  0  0  0  0  0  0  0  0  0  0
  179.5550  192.8790  130.9630 C   0  0  0  0  0  0  0  0  0  0  0  0
  179.7750  191.6240  129.1680 C   0  0  0  0  0  0  0  0  0  0  0  0
  180.0530  192.8210  129.6890 N   0  0  0  0  0  0  0  0  0  0  0  0
  178.1930  179.2330  125.1190 N   0  0  0  0  0  0  0  0  0  0  0  0
  179.4840  178.6900  125.4080 C   0  0  2  0  0  0  0  0  0  0  0  0
  179.3610  177.5960  126.4720 C   0  0  0  0  0  0  0  0  0  0  0  0
  179.7660  176.4350  126.2780 O   0  0  0  0  0  0  0  0  0  0  0  0
  180.4620  179.7940  125.7990 C   0  0  0  0  0  0  0  0  0  0  0  0
  181.9250  179.3990  125.5090 C   0  0  0  0  0  0  0  0  0  0  0  0
  182.9320  180.4000  126.0630 C   0  0  0  0  0  0  0  0  0  0  0  0
  182.5670  181.3920  126.7340 O   0  0  0  0  0  0  0  0  0  0  0  0
  184.2160  180.1300  125.7970 N   0  0  0  0  0  0  0  0  0  0  0  0
  186.5300  190.4700  137.6400 N   0  0  0  0  0  0  0  0  0  0  0  0
  187.7130  191.1720  137.1840 C   0  0  2  0  0  0  0  0  0  0  0  0
  187.9710  192.5430  137.7950 C   0  0  0  0  0  0  0  0  0  0  0  0
  187.1130  193.4300  137.7910 O   0  0  0  0  0  0  0  0  0  0  0  0
  187.8090  191.2870  135.6880 C   0  0  2  0  0  0  0  0  0  0  0  0
  188.4080  190.0110  135.1650 C   0  0  0  0  0  0  0  0  0  0  0  0
  188.7900  192.4130  135.3930 C   0  0  0  0  0  0  0  0  0  0  0  0
  189.3170  190.2990  133.9880 C   0  0  0  0  0  0  0  0  0  0  0  0
  189.2010  192.6890  138.2790 N   0  0  0  0  0  0  0  0  0  0  0  0
  189.7230  193.9310  138.8210 C   0  0  2  0  0  0  0  0  0  0  0  0
  190.9440  194.3540  138.0070 C   0  0  0  0  0  0  0  0  0  0  0  0
  191.5530  193.5480  137.2560 O   0  0  0  0  0  0  0  0  0  0  0  0
  190.0660  193.8560  140.2800 C   0  0  0  0  0  0  0  0  0  0  0  0
  188.9180  194.3290  141.1300 C   0  0  0  0  0  0  0  0  0  0  0  0
  189.3260  194.5880  142.5700 C   0  0  0  0  0  0  0  0  0  0  0  0
  189.1850  196.0600  142.9320 C   0  0  0  0  0  0  0  0  0  0  0  0
  189.3550  196.3520  144.3670 N   0  0  0  0  0  0  0  0  0  0  0  0
  191.2490  195.6470  138.1160 N   0  0  0  0  0  0  0  0  0  0  0  0
  192.3720  196.2410  137.4020 C   0  0  2  0  0  0  0  0  0  0  0  0
  193.3800  196.8930  138.3160 C   0  0  0  0  0  0  0  0  0  0  0  0
  193.0400  197.5690  139.3210 O   0  0  0  0  0  0  0  0  0  0  0  0
  191.9240  197.2670  136.3750 C   0  0  0  0  0  0  0  0  0  0  0  0
  191.0660  196.6510  135.3120 C   0  0  0  0  0  0  0  0  0  0  0  0
  191.6530  196.0500  134.2030 C   0  0  0  0  0  0  0  0  0  0  0  0
  189.6720  196.6440  135.4050 C   0  0  0  0  0  0  0  0  0  0  0  0
  190.8630  195.4500  133.2180 C   0  0  0  0  0  0  0  0  0  0  0  0
  188.8640  196.0690  134.4160 C   0  0  0  0  0  0  0  0  0  0  0  0
  189.4680  195.4600  133.3120 C   0  0  0  0  0  0  0  0  0  0  0  0
  188.7040  194.8740  132.3210 O   0  0  0  0  0  0  0  0  0  0  0  0
  194.6370  196.6750  137.9120 N   0  0  0  0  0  0  0  0  0  0  0  0
  195.7860  197.2040  138.6290 C   0  0  2  0  0  0  0  0  0  0  0  0
  196.2200  198.5900  138.1820 C   0  0  0  0  0  0  0  0  0  0  0  0
  195.5720  199.2370  137.3170 O   0  0  0  0  0  0  0  0  0  0  0  0
  196.9970  196.2470  138.8100 C   0  0  0  0  0  0  0  0  0  0  0  0
  197.7910  195.9510  137.5540 C   0  0  0  0  0  0  0  0  0  0  0  0
  197.6970  196.6100  136.5400 O   0  0  0  0  0  0  0  0  0  0  0  0
  198.5570  194.8800  137.6480 O   0  0  0  0  0  0  0  0  0  0  0  0
  198.3520  199.5900  136.3430 N   0  0  0  0  0  0  0  0  0  0  0  0
  198.6470  199.7710  134.9190 C   0  0  2  0  0  0  0  0  0  0  0  0
  197.5420  199.2870  133.9820 C   0  0  0  0  0  0  0  0  0  0  0  0
  197.8460  198.9480  132.8270 O   0  0  0  0  0  0  0  0  0  0  0  0
  200.0240  199.1810  134.4840 C   0  0  0  0  0  0  0  0  0  0  0  0
  200.8370  198.4810  135.5980 C   0  0  0  0  0  0  0  0  0  0  0  0
  201.5240  199.1280  136.4450 O   0  0  0  0  0  0  0  0  0  0  0  0
  200.7880  197.1330  135.6070 N   0  0  0  0  0  0  0  0  0  0  0  0
  196.2840  199.2550  134.4820 N   0  0  0  0  0  0  0  0  0  0  0  0
  195.1230  198.8250  133.6990 C   0  0  0  0  0  0  0  0  0  0  0  0
  195.1980  197.3460  133.3030 C   0  0  0  0  0  0  0  0  0  0  0  0
  194.6900  196.8880  132.2520 O   0  0  0  0  0  0  0  0  0  0  0  0
  195.8800  196.6170  134.1820 N   0  0  0  0  0  0  0  0  0  0  0  0
  196.0470  195.1890  134.0630 C   0  0  2  0  0  0  0  0  0  0  0  0
  194.9880  194.5100  134.9230 C   0  0  0  0  0  0  0  0  0  0  0  0
  194.7350  194.9190  136.0760 O   0  0  0  0  0  0  0  0  0  0  0  0
  197.4630  194.7550  134.4520 C   0  0  0  0  0  0  0  0  0  0  0  0
  198.4630  194.9980  133.3410 C   0  0  0  0  0  0  0  0  0  0  0  0
  198.1000  195.1260  132.1470 O   0  0  0  0  0  0  0  0  0  0  0  0
  199.7290  195.0320  133.7440 N   0  0  0  0  0  0  0  0  0  0  0  0
  194.3150  193.5150  134.3270 N   0  0  0  0  0  0  0  0  0  0  0  0
  193.2260  192.8410  135.0110 C   0  0  2  0  0  0  0  0  0  0  0  0
  193.6770  191.6710  135.8450 C   0  0  0  0  0  0  0  0  0  0  0  0
  194.7290  191.0450  135.6420 O   0  0  0  0  0  0  0  0  0  0  0  0
  192.2790  192.3510  133.9350 C   0  0  0  0  0  0  0  0  0  0  0  0
  193.0710  192.3760  132.6330 C   0  0  0  0  0  0  0  0  0  0  0  0
  194.3630  193.1300  132.8940 C   0  0  0  0  0  0  0  0  0  0  0  0
  192.8550  191.3950  136.8170 N   0  0  0  0  0  0  0  0  0  0  0  0
  193.1710  190.2830  137.6650 C   0  0  2  0  0  0  0  0  0  0  0  0
  191.8990  189.8410  138.3310 C   0  0  0  0  0  0  0  0  0  0  0  0
  190.9450  190.6410  138.4820 O   0  0  0  0  0  0  0  0  0  0  0  0
  194.3500  190.5250  138.6290 C   0  0  0  0  0  0  0  0  0  0  0  0
  194.0590  191.7150  139.4770 C   0  0  0  0  0  0  0  0  0  0  0  0
  194.1900  193.0050  139.0930 C   0  0  0  0  0  0  0  0  0  0  0  0
  193.4410  191.7340  140.7710 C   0  0  0  0  0  0  0  0  0  0  0  0
  193.7570  193.8380  140.0860 N   0  0  0  0  0  0  0  0  0  0  0  0
  193.2970  193.0910  141.1360 C   0  0  0  0  0  0  0  0  0  0  0  0
  193.0330  190.7540  141.6680 C   0  0  0  0  0  0  0  0  0  0  0  0
  192.7410  193.4760  142.3660 C   0  0  0  0  0  0  0  0  0  0  0  0
  192.5120  191.1400  142.8810 C   0  0  0  0  0  0  0  0  0  0  0  0
  192.3500  192.4800  143.2220 C   0  0  0  0  0  0  0  0  0  0  0  0
  186.2220  181.7040  135.4780 N   0  0  0  0  0  0  0  0  0  0  0  0
  185.2260  182.6540  135.0390 C   0  0  2  0  0  0  0  0  0  0  0  0
  185.2360  182.9520  133.5390 C   0  0  0  0  0  0  0  0  0  0  0  0
  184.1930  183.2610  132.9640 O   0  0  0  0  0  0  0  0  0  0  0  0
  185.2950  183.8850  135.8930 C   0  0  0  0  0  0  0  0  0  0  0  0
  186.4220  182.8420  132.9040 N   0  0  0  0  0  0  0  0  0  0  0  0
  186.5850  183.0860  131.4530 C   0  0  2  0  0  0  0  0  0  0  0  0
  186.1750  181.8780  130.6330 C   0  0  0  0  0  0  0  0  0  0  0  0
  186.3140  181.8650  129.3900 O   0  0  0  0  0  0  0  0  0  0  0  0
  188.0420  183.4480  131.0210 C   0  0  0  0  0  0  0  0  0  0  0  0
  189.1410  182.5590  131.5250 C   0  0  0  0  0  0  0  0  0  0  0  0
  188.8280  181.2830  131.4930 O   0  0  0  0  0  0  0  0  0  0  0  0
  190.1960  182.9930  131.9650 O   0  0  0  0  0  0  0  0  0  0  0  0
  185.7240  180.8500  131.3530 N   0  0  0  0  0  0  0  0  0  0  0  0
  185.3470  179.6050  130.7150 C   0  0  2  0  0  0  0  0  0  0  0  0
  186.5360  178.7320  130.2940 C   0  0  0  0  0  0  0  0  0  0  0  0
  186.4600  177.8950  129.4100 O   0  0  0  0  0  0  0  0  0  0  0  0
  184.2500  179.7120  129.6470 C   0  0  0  0  0  0  0  0  0  0  0  0
  182.8050  179.7240  130.1830 C   0  0  0  0  0  0  0  0  0  0  0  0
  182.4850  180.8170  131.2020 C   0  0  0  0  0  0  0  0  0  0  0  0
  181.0680  180.7960  131.5750 N   0  0  0  0  0  0  0  0  0  0  0  0
  180.5520  181.6800  132.4230 C   0  0  0  0  0  0  0  0  0  0  0  0
  181.3420  182.6030  132.9340 N   0  0  0  0  0  0  0  0  0  0  0  0
  179.2480  181.6560  132.7710 N   0  0  0  0  0  0  0  0  0  0  0  0
  2  1  1  1
  3  2  1  0
  4  3  2  0
  5  2  1  0
  6  5  1  0
  7  6  1  0
  8  7  1  0
 10  9  1  1
 11 10  1  0
 12 11  2  0
 13 10  1  0
 14 13  1  0
 15 14  1  0
 16 14  2  0
 17 15  2  0
 18 16  1  0
 18 17  1  0
 19 11  1  0
 20 19  1  0
 20 21  1  6
 22 21  2  0
 23 20  1  0
 24 23  1  0
 25 24  1  0
 25 19  1  0
 26 21  1  0
 27 26  1  0
 28 27  1  0
 29 28  2  0
 27 30  1  6
 31 30  1  0
 32 31  1  0
 33 31  1  0
 34 28  1  0
 35 34  1  0
 36 35  1  0
 37 36  2  0
 35 38  1  6
 39 38  1  0
 40 39  1  0
 41 39  2  0
 42 40  2  0
 43 42  1  0
 43 41  1  0
 45 44  1  1
 46 45  1  0
 47 46  2  0
 48 45  1  0
 49 48  1  0
 50 49  1  0
 51 50  2  0
 52 50  1  0
 54 53  1  6
 55 54  1  0
 56 55  2  0
 57 54  1  0
 58 57  1  0
 57 59  1  1
 60 58  1  0
 61 55  1  0
 62 61  1  0
 63 62  1  0
 64 63  2  0
 62 65  1  1
 66 65  1  0
 67 66  1  0
 68 67  1  0
 69 68  1  0
 70 63  1  0
 71 70  1  0
 72 71  1  0
 73 72  2  0
 71 74  1  6
 75 74  1  0
 76 75  2  0
 77 75  1  0
 78 76  1  0
 79 77  2  0
 80 79  1  0
 80 78  2  0
 81 80  1  0
 82 72  1  0
 83 82  1  0
 84 83  1  0
 85 84  2  0
 83 86  1  6
 87 86  1  0
 88 87  2  0
 89 87  1  0
 91 90  1  1
 92 91  1  0
 93 92  2  0
 94 91  1  0
 95 94  1  0
 96 95  2  0
 97 95  1  0
 98 92  1  0
 99 98  1  0
100 99  1  0
101100  2  0
102100  1  0
103102  1  0
104103  1  0
105104  2  0
103106  1  1
107106  1  0
108107  2  0
109107  1  0
110104  1  0
111110  1  0
111112  1  6
113112  2  0
114111  1  0
115114  1  0
116115  1  0
116110  1  0
117112  1  0
118117  1  0
119118  1  0
120119  2  0
118121  1  1
122121  1  0
123122  2  0
124122  1  0
125123  1  0
126125  1  0
126124  2  0
127124  1  0
128126  1  0
129127  2  0
130129  1  0
130128  2  0
132131  1  0
133132  1  0
134133  2  0
132135  1  1
136133  1  0
137136  1  0
138137  1  0
139138  2  0
137140  1  1
141140  1  0
142141  2  0
143141  1  0
144138  1  0
145144  1  0
146145  1  0
147146  2  0
145148  1  6
149148  1  0
150149  1  0
151150  1  0
152151  1  0
153152  1  0
154152  2  0
M  END
$$$$
