
     RDKit          3D

132131  0  0  0  0  0  0  0  0999 V2000
  182.2640  187.4150  134.7720 N   0  0  0  0  0  0  0  0  0  0  0  0
  183.3620  188.1320  135.4350 C   0  0  2  0  0  0  0  0  0  0  0  0
  183.3700  189.6390  135.1390 C   0  0  0  0  0  0  0  0  0  0  0  0
  183.8200  190.4890  135.9300 O   0  0  0  0  0  0  0  0  0  0  0  0
  184.6240  187.5070  134.8240 C   0  0  0  0  0  0  0  0  0  0  0  0
  184.1890  186.8630  133.5010 C   0  0  0  0  0  0  0  0  0  0  0  0
  182.6670  186.7620  133.5020 C   0  0  0  0  0  0  0  0  0  0  0  0
  182.8850  189.9620  133.9460 N   0  0  0  0  0  0  0  0  0  0  0  0
  182.8060  191.3430  133.5180 C   0  0  2  0  0  0  0  0  0  0  0  0
  181.4820  191.9890  133.7760 C   0  0  0  0  0  0  0  0  0  0  0  0
  181.4490  193.0940  134.2900 O   0  0  0  0  0  0  0  0  0  0  0  0
  183.1350  191.5130  132.0450 C   0  0  0  0  0  0  0  0  0  0  0  0
  184.6320  191.4210  131.9340 C   0  0  0  0  0  0  0  0  0  0  0  0
  185.0100  190.9420  130.5430 C   0  0  0  0  0  0  0  0  0  0  0  0
  185.2590  192.7540  132.3300 C   0  0  0  0  0  0  0  0  0  0  0  0
  181.1220  177.4130  137.0780 N   0  0  0  0  0  0  0  0  0  0  0  0
  182.1160  178.4790  136.9480 C   0  0  2  0  0  0  0  0  0  0  0  0
  182.5720  179.0870  138.2470 C   0  0  0  0  0  0  0  0  0  0  0  0
  181.8010  179.2800  139.1510 O   0  0  0  0  0  0  0  0  0  0  0  0
  181.5430  179.7320  136.2940 C   0  0  0  0  0  0  0  0  0  0  0  0
  182.3800  180.1440  135.1040 C   0  0  0  0  0  0  0  0  0  0  0  0
  180.0900  179.5590  135.9350 C   0  0  0  0  0  0  0  0  0  0  0  0
  183.7930  179.5610  138.2580 N   0  0  0  0  0  0  0  0  0  0  0  0
  184.3290  180.2870  139.3880 C   0  0  2  0  0  0  0  0  0  0  0  0
  183.6100  181.6400  139.4550 C   0  0  0  0  0  0  0  0  0  0  0  0
  183.4810  182.3250  138.4260 O   0  0  0  0  0  0  0  0  0  0  0  0
  185.8350  180.5500  139.1140 C   0  0  0  0  0  0  0  0  0  0  0  0
  186.7310  179.4280  139.5260 C   0  0  0  0  0  0  0  0  0  0  0  0
  186.3200  178.4170  140.0730 O   0  0  0  0  0  0  0  0  0  0  0  0
  188.0030  179.6880  139.3110 O   0  0  0  0  0  0  0  0  0  0  0  0
  184.5120  184.4550  140.3540 N   0  0  0  0  0  0  0  0  0  0  0  0
  185.5220  185.4690  140.5150 C   0  0  2  0  0  0  0  0  0  0  0  0
  185.1640  186.6290  139.5940 C   0  0  0  0  0  0  0  0  0  0  0  0
  184.4770  186.4680  138.5820 O   0  0  0  0  0  0  0  0  0  0  0  0
  186.9170  184.9550  140.2020 C   0  0  0  0  0  0  0  0  0  0  0  0
  186.9830  184.6100  138.8350 O   0  0  0  0  0  0  0  0  0  0  0  0
  185.6260  187.8130  139.9550 N   0  0  0  0  0  0  0  0  0  0  0  0
  185.3520  189.0190  139.1840 C   0  0  2  0  0  0  0  0  0  0  0  0
  186.6300  189.7120  138.7260 C   0  0  0  0  0  0  0  0  0  0  0  0
  187.6800  189.6410  139.3750 O   0  0  0  0  0  0  0  0  0  0  0  0
  184.5980  190.0110  140.0810 C   0  0  0  0  0  0  0  0  0  0  0  0
  183.1100  189.7160  140.2510 C   0  0  0  0  0  0  0  0  0  0  0  0
  182.5300  190.5870  141.3700 C   0  0  0  0  0  0  0  0  0  0  0  0
  182.3750  189.8990  138.9160 C   0  0  0  0  0  0  0  0  0  0  0  0
  186.5300  190.4700  137.6400 N   0  0  0  0  0  0  0  0  0  0  0  0
  187.7130  191.1720  137.1840 C   0  0  2  0  0  0  0  0  0  0  0  0
  187.9710  192.5430  137.7950 C   0  0  0  0  0  0  0  0  0  0  0  0
  187.1130  193.4300  137.7910 O   0  0  0  0  0  0  0  0  0  0  0  0
  187.8090  191.2870  135.6880 C   0  0  2  0  0  0  0  0  0  0  0  0
  188.4080  190.0110  135.1650 C   0  0  0  0  0  0  0  0  0  0  0  0
  188.7900  192.4130  135.3930 C   0  0  0  0  0  0  0  0  0  0  0  0
  189.3170  190.2990  133.9880 C   0  0  0  0  0  0  0  0  0  0  0  0
  194.3150  193.5150  134.3270 N   0  0  0  0  0  0  0  0  0  0  0  0
  193.2260  192.8410  135.0110 C   0  0  2  0  0  0  0  0  0  0  0  0
  193.6770  191.6710  135.8450 C   0  0  0  0  0  0  0  0  0  0  0  0
  194.7290  191.0450  135.6420 O   0  0  0  0  0  0  0  0  0  0  0  0
  192.2790  192.3510  133.9350 C   0  0  0  0  0  0  0  0  0  0  0  0
  193.0710  192.3760  132.6330 C   0  0  0  0  0  0  0  0  0  0  0  0
  194.3630  193.1300  132.8940 C   0  0  0  0  0  0  0  0  0  0  0  0
  192.8550  191.3950  136.8170 N   0  0  0  0  0  0  0  0  0  0  0  0
  193.1710  190.2830  137.6650 C   0  0  2  0  0  0  0  0  0  0  0  0
  191.8990  189.8410  138.3310 C   0  0  0  0  0  0  0  0  0  0  0  0
  190.9450  190.6410  138.4820 O   0  0  0  0  0  0  0  0  0  0  0  0
  194.3500  190.5250  138.6290 C   0  0  0  0  0  0  0  0  0  0  0  0
  194.0590  191.7150  139.4770 C   0  0  0  0  0  0  0  0  0  0  0  0
  194.1900  193.0050  139.0930 C   0  0  0  0  0  0  0  0  0  0  0  0
  193.4410  191.7340  140.7710 C   0  0  0  0  0  0  0  0  0  0  0  0
  193.7570  193.8380  140.0860 N   0  0  0  0  0  0  0  0  0  0  0  0
  193.2970  193.0910  141.1360 C   0  0  0  0  0  0  0  0  0  0  0  0
  193.0330  190.7540  141.6680 C   0  0  0  0  0  0  0  0  0  0  0  0
  192.7410  193.4760  142.3660 C   0  0  0  0  0  0  0  0  0  0  0  0
  192.5120  191.1400  142.8810 C   0  0  0  0  0  0  0  0  0  0  0  0
  192.3500  192.4800  143.2220 C   0  0  0  0  0  0  0  0  0  0  0  0
  191.9110  188.5480  138.6460 N   0  0  0  0  0  0  0  0  0  0  0  0
  190.7710  187.8820  139.2260 C   0  0  2  0  0  0  0  0  0  0  0  0
  190.6430  188.1430  140.7040 C   0  0  0  0  0  0  0  0  0  0  0  0
  191.5360  187.8550  141.4850 O   0  0  0  0  0  0  0  0  0  0  0  0
  190.7240  186.4100  138.8620 C   0  0  0  0  0  0  0  0  0  0  0  0
  190.9670  186.2310  137.4730 O   0  0  0  0  0  0  0  0  0  0  0  0
  187.1400  178.2540  134.9370 N   0  0  0  0  0  0  0  0  0  0  0  0
  187.4420  179.5950  135.4030 C   0  0  2  0  0  0  0  0  0  0  0  0
  186.3560  180.5270  134.8700 C   0  0  0  0  0  0  0  0  0  0  0  0
  185.6800  180.2170  133.8820 O   0  0  0  0  0  0  0  0  0  0  0  0
  188.7570  180.0650  134.7570 C   0  0  0  0  0  0  0  0  0  0  0  0
  189.9630  179.4060  135.3310 C   0  0  0  0  0  0  0  0  0  0  0  0
  190.4850  179.8180  136.5590 C   0  0  0  0  0  0  0  0  0  0  0  0
  190.5890  178.3580  134.6520 C   0  0  0  0  0  0  0  0  0  0  0  0
  191.6180  179.2080  137.1170 C   0  0  0  0  0  0  0  0  0  0  0  0
  191.7210  177.7410  135.1920 C   0  0  0  0  0  0  0  0  0  0  0  0
  192.2360  178.1590  136.4260 C   0  0  0  0  0  0  0  0  0  0  0  0
  186.2220  181.7040  135.4780 N   0  0  0  0  0  0  0  0  0  0  0  0
  185.2260  182.6540  135.0390 C   0  0  2  0  0  0  0  0  0  0  0  0
  185.2360  182.9520  133.5390 C   0  0  0  0  0  0  0  0  0  0  0  0
  184.1930  183.2610  132.9640 O   0  0  0  0  0  0  0  0  0  0  0  0
  185.2950  183.8850  135.8930 C   0  0  0  0  0  0  0  0  0  0  0  0
  186.4220  182.8420  132.9040 N   0  0  0  0  0  0  0  0  0  0  0  0
  186.5850  183.0860  131.4530 C   0  0  2  0  0  0  0  0  0  0  0  0
  186.1750  181.8780  130.6330 C   0  0  0  0  0  0  0  0  0  0  0  0
  186.3140  181.8650  129.3900 O   0  0  0  0  0  0  0  0  0  0  0  0
  188.0420  183.4480  131.0210 C   0  0  0  0  0  0  0  0  0  0  0  0
  189.1410  182.5590  131.5250 C   0  0  0  0  0  0  0  0  0  0  0  0
  188.8280  181.2830  131.4930 O   0  0  0  0  0  0  0  0  0  0  0  0
  190.1960  182.9930  131.9650 O   0  0  0  0  0  0  0  0  0  0  0  0
  185.7240  180.8500  131.3530 N   0  0  0  0  0  0  0  0  0  0  0  0
  185.3470  179.6050  130.7150 C   0  0  2  0  0  0  0  0  0  0  0  0
  186.5360  178.7320  130.2940 C   0  0  0  0  0  0  0  0  0  0  0  0
  186.4600  177.8950  129.4100 O   0  0  0  0  0  0  0  0  0  0  0  0
  184.2500  179.7120  129.6470 C   0  0  0  0  0  0  0  0  0  0  0  0
  182.8050  179.7240  130.1830 C   0  0  0  0  0  0  0  0  0  0  0  0
  182.4850  180.8170  131.2020 C   0  0  0  0  0  0  0  0  0  0  0  0
  181.0680  180.7960  131.5750 N   0  0  0  0  0  0  0  0  0  0  0  0
  180.5520  181.6800  132.4230 C   0  0  0  0  0  0  0  0  0  0  0  0
  181.3420  182.6030  132.9340 N   0  0  0  0  0  0  0  0  0  0  0  0
  179.2480  181.6560  132.7710 N   0  0  0  0  0  0  0  0  0  0  0  0
  187.6740  178.9410  130.9100 N   0  0  0  0  0  0  0  0  0  0  0  0
  188.7580  178.0560  130.6280 C   0  0  2  0  0  0  0  0  0  0  0  0
  188.7330  177.0770  131.7770 C   0  0  0  0  0  0  0  0  0  0  0  0
  188.5090  177.4350  132.9360 O   0  0  0  0  0  0  0  0  0  0  0  0
  190.1220  178.7230  130.4350 C   0  0  2  0  0  0  0  0  0  0  0  0
  190.6230  179.2300  131.6500 O   0  0  0  0  0  0  0  0  0  0  0  0
  189.9870  179.8260  129.4110 C   0  0  0  0  0  0  0  0  0  0  0  0
  196.9330  184.6210  142.6410 N   0  0  0  0  0  0  0  0  0  0  0  0
  197.8880  184.1870  141.6840 C   0  0  2  0  0  0  0  0  0  0  0  0
  198.5500  185.3250  140.9630 C   0  0  0  0  0  0  0  0  0  0  0  0
  199.6790  185.1830  140.5100 O   0  0  0  0  0  0  0  0  0  0  0  0
  197.2180  183.2810  140.7060 C   0  0  0  0  0  0  0  0  0  0  0  0
  196.1710  184.0520  139.9440 C   0  0  0  0  0  0  0  0  0  0  0  0
  195.6580  183.1720  138.8430 C   0  0  0  0  0  0  0  0  0  0  0  0
  194.7300  183.8250  137.9500 N   0  0  0  0  0  0  0  0  0  0  0  0
  194.1410  183.0790  137.0320 C   0  0  0  0  0  0  0  0  0  0  0  0
  194.3830  181.7720  136.9460 N   0  0  0  0  0  0  0  0  0  0  0  0
  193.2890  183.6310  136.1920 N   0  0  0  0  0  0  0  0  0  0  0  0
  2  1  1  0
  2  3  1  6
  4  3  2  0
  5  2  1  0
  6  5  1  0
  7  6  1  0
  7  1  1  0
  8  3  1  0
  9  8  1  0
 10  9  1  0
 11 10  2  0
  9 12  1  6
 13 12  1  0
 14 13  1  0
 15 13  1  0
 17 16  1  1
 18 17  1  0
 19 18  2  0
 20 17  1  0
 21 20  1  0
 22 20  1  0
 23 18  1  0
 24 23  1  0
 25 24  1  0
 26 25  2  0
 24 27  1  6
 28 27  1  0
 29 28  2  0
 30 28  1  0
 32 31  1  6
 33 32  1  0
 34 33  2  0
 35 32  1  0
 36 35  1  0
 37 33  1  0
 38 37  1  0
 39 38  1  0
 40 39  2  0
 38 41  1  1
 42 41  1  0
 43 42  1  0
 44 42  1  0
 45 39  1  0
 46 45  1  6
 47 46  1  0
 48 47  2  0
 49 46  1  0
 50 49  1  0
 49 51  1  1
 52 50  1  0
 54 53  1  0
 54 55  1  6
 56 55  2  0
 57 54  1  0
 58 57  1  0
 59 58  1  0
 59 53  1  0
 60 55  1  0
 61 60  1  0
 62 61  1  0
 63 62  2  0
 61 64  1  1
 65 64  1  0
 66 65  2  0
 67 65  1  0
 68 66  1  0
 69 68  1  0
 69 67  2  0
 70 67  1  0
 71 69  1  0
 72 70  2  0
 73 72  1  0
 73 71  2  0
 74 62  1  0
 75 74  1  0
 76 75  1  0
 77 76  2  0
 75 78  1  1
 79 78  1  0
 81 80  1  6
 82 81  1  0
 83 82  2  0
 84 81  1  0
 85 84  1  0
 86 85  2  0
 87 85  1  0
 88 86  1  0
 89 87  2  0
 90 89  1  0
 90 88  2  0
 91 82  1  0
 92 91  1  0
 93 92  1  0
 94 93  2  0
 92 95  1  1
 96 93  1  0
 97 96  1  0
 98 97  1  0
 99 98  2  0
 97100  1  1
101100  1  0
102101  2  0
103101  1  0
104 98  1  0
105104  1  0
106105  1  0
107106  2  0
105108  1  6
109108  1  0
110109  1  0
111110  1  0
112111  1  0
113112  1  0
114112  2  0
115106  1  0
116115  1  1
117116  1  0
118117  2  0
119116  1  0
120119  1  0
119121  1  6
123122  1  1
124123  1  0
125124  2  0
126123  1  0
127126  1  0
128127  1  0
129128  1  0
130129  1  0
131130  1  0
132130  2  0
M  END
$$$$
