
     RDKit          3D

101 97  0  0  0  0  0  0  0  0999 V2000
  -35.4300  103.2820   -1.7630 N   0  0  0  0  0  0  0  0  0  0  0  0
  -36.2820  103.8830   -2.7770 C   0  0  0  0  0  0  0  0  0  0  0  0
  -36.2760  105.4010   -2.7160 C   0  0  0  0  0  0  0  0  0  0  0  0
  -35.6210  105.9820   -1.8460 O   0  0  0  0  0  0  0  0  0  0  0  0
  -36.9880  106.0490   -3.6410 N   0  0  0  0  0  0  0  0  0  0  0  0
  -37.0500  107.5180   -3.6790 C   0  0  2  0  0  0  0  0  0  0  0  0
  -38.4520  108.0740   -3.4390 C   0  0  0  0  0  0  0  0  0  0  0  0
  -39.3780  107.7460   -4.1900 O   0  0  0  0  0  0  0  0  0  0  0  0
  -36.5400  108.0510   -5.0220 C   0  0  0  0  0  0  0  0  0  0  0  0
  -35.0370  108.0810   -5.2380 C   0  0  0  0  0  0  0  0  0  0  0  0
  -34.4840  106.6780   -5.3230 C   0  0  0  0  0  0  0  0  0  0  0  0
  -34.7640  108.8160   -6.5020 C   0  0  0  0  0  0  0  0  0  0  0  0
  -38.5850  108.9470   -2.4330 N   0  0  0  0  0  0  0  0  0  0  0  0
  -39.8540  109.6190   -2.1140 C   0  0  2  0  0  0  0  0  0  0  0  0
  -39.8590  111.1210   -2.4220 C   0  0  0  0  0  0  0  0  0  0  0  0
  -38.8100  111.7560   -2.4010 O   0  0  0  0  0  0  0  0  0  0  0  0
  -40.1810  109.4410   -0.6430 C   0  0  0  0  0  0  0  0  0  0  0  0
  -40.9460  110.6320   -0.0420 C   0  0  0  0  0  0  0  0  0  0  0  0
  -42.4630  110.5580   -0.2690 C   0  0  0  0  0  0  0  0  0  0  0  0
  -43.2380  110.9960    0.9890 C   0  0  0  0  0  0  0  0  0  0  0  0
  -43.0610  112.4380    1.3200 N   0  0  0  0  0  0  0  0  0  0  0  0
  -41.0520  111.6660   -2.6770 N   0  0  0  0  0  0  0  0  0  0  0  0
  -41.2870  113.0800   -2.9840 C   0  0  2  0  0  0  0  0  0  0  0  0
  -42.5660  113.5410   -2.2500 C   0  0  0  0  0  0  0  0  0  0  0  0
  -43.4980  112.7590   -2.1170 O   0  0  0  0  0  0  0  0  0  0  0  0
  -41.4470  113.2260   -4.5090 C   0  0  0  0  0  0  0  0  0  0  0  0
  -41.4210  114.6530   -5.0810 C   0  0  0  0  0  0  0  0  0  0  0  0
  -41.6880  114.6970   -6.5910 C   0  0  0  0  0  0  0  0  0  0  0  0
  -41.1900  113.8090   -7.3120 O   0  0  0  0  0  0  0  0  0  0  0  0
  -42.3990  115.6130   -7.0620 O   0  0  0  0  0  0  0  0  0  0  0  0
  -42.6190  114.7800   -1.7600 N   0  0  0  0  0  0  0  0  0  0  0  0
  -43.8270  115.2890   -1.0920 C   0  0  2  0  0  0  0  0  0  0  0  0
  -44.1540  116.7000   -1.5500 C   0  0  0  0  0  0  0  0  0  0  0  0
  -43.2760  117.5060   -1.6650 O   0  0  0  0  0  0  0  0  0  0  0  0
  -43.6380  115.2940    0.4260 C   0  0  0  0  0  0  0  0  0  0  0  0
  -44.4080  114.2940    1.0820 O   0  0  0  0  0  0  0  0  0  0  0  0
  -36.8730  113.0160   -1.3490 N   0  0  0  0  0  0  0  0  0  0  0  0
  -35.9420  112.5130   -0.3420 C   0  0  2  0  0  0  0  0  0  0  0  0
  -35.4510  111.1290   -0.7030 C   0  0  0  0  0  0  0  0  0  0  0  0
  -36.0370  110.4720   -1.5700 O   0  0  0  0  0  0  0  0  0  0  0  0
  -36.5970  112.4830    1.0470 C   0  0  0  0  0  0  0  0  0  0  0  0
  -37.1000  113.8400    1.5180 C   0  0  0  0  0  0  0  0  0  0  0  0
  -37.3440  113.9110    3.0140 C   0  0  0  0  0  0  0  0  0  0  0  0
  -36.3670  114.0440    3.7910 O   0  0  0  0  0  0  0  0  0  0  0  0
  -38.5270  113.8560    3.4060 O   0  0  0  0  0  0  0  0  0  0  0  0
  -34.3810  110.6850   -0.0410 N   0  0  0  0  0  0  0  0  0  0  0  0
  -33.8950  109.3250   -0.2230 C   0  0  0  0  0  0  0  0  0  0  0  0
  -32.6790  109.1840   -1.1130 C   0  0  0  0  0  0  0  0  0  0  0  0
  -32.4080  108.1030   -1.6430 O   0  0  0  0  0  0  0  0  0  0  0  0
  -39.9550  112.9090   -9.6860 N   0  0  0  0  0  0  0  0  0  0  0  0
  -41.0320  111.9340   -9.8790 C   0  0  2  0  0  0  0  0  0  0  0  0
  -42.2110  112.5260  -10.6580 C   0  0  0  0  0  0  0  0  0  0  0  0
  -42.5890  112.0270  -11.7310 O   0  0  0  0  0  0  0  0  0  0  0  0
  -41.4710  111.3530   -8.5410 C   0  0  0  0  0  0  0  0  0  0  0  0
  -40.2530  110.8720   -7.7550 C   0  0  0  0  0  0  0  0  0  0  0  0
  -40.6480  110.2240   -6.4430 C   0  0  0  0  0  0  0  0  0  0  0  0
  -39.4350  109.9110   -8.6040 C   0  0  0  0  0  0  0  0  0  0  0  0
  -50.0930  119.8900   -8.6220 N   0  0  0  0  0  0  0  0  0  0  0  0
  -48.9680  118.9600   -8.6990 C   0  0  2  0  0  0  0  0  0  0  0  0
  -49.4410  117.7380   -9.4220 C   0  0  0  0  0  0  0  0  0  0  0  0
  -50.5700  117.3250   -9.2320 O   0  0  0  0  0  0  0  0  0  0  0  0
  -48.4750  118.6210   -7.2900 C   0  0  0  0  0  0  0  0  0  0  0  0
  -47.4400  117.5070   -7.1270 C   0  0  0  0  0  0  0  0  0  0  0  0
  -46.1170  117.6720   -7.5070 C   0  0  0  0  0  0  0  0  0  0  0  0
  -47.7830  116.3200   -6.5150 C   0  0  0  0  0  0  0  0  0  0  0  0
  -45.1910  116.6630   -7.3180 C   0  0  0  0  0  0  0  0  0  0  0  0
  -46.8670  115.3130   -6.3270 C   0  0  0  0  0  0  0  0  0  0  0  0
  -45.5780  115.4820   -6.7260 C   0  0  0  0  0  0  0  0  0  0  0  0
  -44.6870  114.4540   -6.5250 O   0  0  0  0  0  0  0  0  0  0  0  0
  -48.5950  117.1690  -10.2690 N   0  0  0  0  0  0  0  0  0  0  0  0
  -49.0010  116.0400  -11.0970 C   0  0  2  0  0  0  0  0  0  0  0  0
  -47.9490  114.9570  -11.1020 C   0  0  0  0  0  0  0  0  0  0  0  0
  -46.8310  115.1880  -11.5310 O   0  0  0  0  0  0  0  0  0  0  0  0
  -49.1600  116.4770  -12.5400 C   0  0  2  0  0  0  0  0  0  0  0  0
  -50.0930  117.6810  -12.6510 C   0  0  0  0  0  0  0  0  0  0  0  0
  -49.6320  115.3220  -13.3680 C   0  0  0  0  0  0  0  0  0  0  0  0
  -50.0810  118.3390  -14.0220 C   0  0  0  0  0  0  0  0  0  0  0  0
  -48.2820  113.7630  -10.6470 N   0  0  0  0  0  0  0  0  0  0  0  0
  -47.2570  112.7330  -10.6460 C   0  0  2  0  0  0  0  0  0  0  0  0
  -47.1340  112.0400  -11.9860 C   0  0  0  0  0  0  0  0  0  0  0  0
  -47.9970  112.1860  -12.8420 O   0  0  0  0  0  0  0  0  0  0  0  0
  -47.5780  111.6380   -9.6560 C   0  0  2  0  0  0  0  0  0  0  0  0
  -46.5350  110.6580   -9.7070 O   0  0  0  0  0  0  0  0  0  0  0  0
  -48.9030  110.9740  -10.0210 C   0  0  0  0  0  0  0  0  0  0  0  0
  -47.7390  109.0130  -12.7790 N   0  0  0  0  0  0  0  0  0  0  0  0
  -48.8280  108.0700  -13.0090 C   0  0  2  0  0  0  0  0  0  0  0  0
  -49.9930  108.7780  -13.6690 C   0  0  0  0  0  0  0  0  0  0  0  0
  -50.6720  108.1930  -14.5140 O   0  0  0  0  0  0  0  0  0  0  0  0
  -49.2760  107.4210  -11.6990 C   0  0  0  0  0  0  0  0  0  0  0  0
  -48.1890  106.5960  -11.0550 C   0  0  0  0  0  0  0  0  0  0  0  0
  -47.4200  105.7960  -12.0820 C   0  0  0  0  0  0  0  0  0  0  0  0
  -47.9910  104.9610  -12.7850 O   0  0  0  0  0  0  0  0  0  0  0  0
  -46.1200  106.0560  -12.1860 N   0  0  0  0  0  0  0  0  0  0  0  0
  -50.1980  110.0360  -13.2690 N   0  0  0  0  0  0  0  0  0  0  0  0
  -51.2960  110.9040  -13.7230 C   0  0  2  0  0  0  0  0  0  0  0  0
  -51.1910  111.4400  -15.1760 C   0  0  0  0  0  0  0  0  0  0  0  0
  -52.2070  111.6340  -15.8620 O   0  0  0  0  0  0  0  0  0  0  0  0
  -51.4170  112.0980  -12.7730 C   0  0  0  0  0  0  0  0  0  0  0  0
  -51.9290  111.7160  -11.3940 C   0  0  0  0  0  0  0  0  0  0  0  0
  -51.8490  110.5270  -11.0120 O   0  0  0  0  0  0  0  0  0  0  0  0
  -52.4090  112.6250  -10.6830 O   0  0  0  0  0  0  0  0  0  0  0  0
  2  1  1  0
  3  2  1  0
  4  3  2  0
  5  3  1  0
  6  5  1  0
  7  6  1  0
  8  7  2  0
  6  9  1  6
 10  9  1  0
 11 10  1  0
 12 10  1  0
 13  7  1  0
 14 13  1  0
 15 14  1  0
 16 15  2  0
 14 17  1  1
 18 17  1  0
 19 18  1  0
 20 19  1  0
 21 20  1  0
 22 15  1  0
 23 22  1  0
 24 23  1  0
 25 24  2  0
 23 26  1  6
 27 26  1  0
 28 27  1  0
 29 28  2  0
 30 28  1  0
 31 24  1  0
 32 31  1  0
 33 32  1  0
 34 33  2  0
 32 35  1  1
 36 35  1  0
 38 37  1  6
 39 38  1  0
 40 39  2  0
 41 38  1  0
 42 41  1  0
 43 42  1  0
 44 43  2  0
 45 43  1  0
 46 39  1  0
 47 46  1  0
 48 47  1  0
 49 48  2  0
 51 50  1  1
 52 51  1  0
 53 52  2  0
 54 51  1  0
 55 54  1  0
 56 55  1  0
 57 55  1  0
 59 58  1  1
 60 59  1  0
 61 60  2  0
 62 59  1  0
 63 62  1  0
 64 63  2  0
 65 63  1  0
 66 64  1  0
 67 65  2  0
 68 67  1  0
 68 66  2  0
 69 68  1  0
 70 60  1  0
 71 70  1  1
 72 71  1  0
 73 72  2  0
 74 71  1  0
 75 74  1  0
 74 76  1  6
 77 75  1  0
 78 72  1  0
 79 78  1  6
 80 79  1  0
 81 80  2  0
 82 79  1  0
 83 82  1  0
 82 84  1  6
 86 85  1  1
 87 86  1  0
 88 87  2  0
 89 86  1  0
 90 89  1  0
 91 90  1  0
 92 91  2  0
 93 91  1  0
 94 87  1  0
 95 94  1  0
 96 95  1  0
 97 96  2  0
 95 98  1  1
 99 98  1  0
100 99  2  0
101 99  1  0
M  END
$$$$
