
     RDKit          3D

166159  0  0  0  0  0  0  0  0999 V2000
  -12.6690   -2.6510   -9.2640 N   0  0  0  0  0  0  0  0  0  0  0  0
  -12.9240   -1.4530   -8.4060 C   0  0  2  0  0  0  0  0  0  0  0  0
  -13.3080   -0.2180   -9.2260 C   0  0  0  0  0  0  0  0  0  0  0  0
  -13.6100    0.8380   -8.6730 O   0  0  0  0  0  0  0  0  0  0  0  0
  -11.7610   -1.1790   -7.4390 C   0  0  0  0  0  0  0  0  0  0  0  0
  -10.4010   -1.5930   -7.9500 C   0  0  0  0  0  0  0  0  0  0  0  0
  -10.0720   -2.9410   -8.1340 C   0  0  0  0  0  0  0  0  0  0  0  0
   -9.4250   -0.6340   -8.2050 C   0  0  0  0  0  0  0  0  0  0  0  0
   -8.8140   -3.3120   -8.6030 C   0  0  0  0  0  0  0  0  0  0  0  0
   -8.1600   -1.0020   -8.6650 C   0  0  0  0  0  0  0  0  0  0  0  0
   -7.8540   -2.3420   -8.8670 C   0  0  0  0  0  0  0  0  0  0  0  0
  -16.2160    0.9960  -11.1780 N   0  0  0  0  0  0  0  0  0  0  0  0
  -17.6370    0.6590  -11.0670 C   0  0  2  0  0  0  0  0  0  0  0  0
  -18.5320    1.3520  -12.0790 C   0  0  0  0  0  0  0  0  0  0  0  0
  -19.7470    1.2670  -11.9990 O   0  0  0  0  0  0  0  0  0  0  0  0
  -18.1380    1.1420   -9.6970 C   0  0  2  0  0  0  0  0  0  0  0  0
  -18.5640    2.5160   -9.7870 O   0  0  0  0  0  0  0  0  0  0  0  0
  -17.0240    1.0000   -8.6500 C   0  0  0  0  0  0  0  0  0  0  0  0
  -17.9280    2.0840  -12.9920 N   0  0  0  0  0  0  0  0  0  0  0  0
  -18.6740    2.7830  -13.9960 C   0  0  2  0  0  0  0  0  0  0  0  0
  -19.1420    1.7710  -15.0180 C   0  0  0  0  0  0  0  0  0  0  0  0
  -20.0310    2.0510  -15.7950 O   0  0  0  0  0  0  0  0  0  0  0  0
  -17.8180    3.8650  -14.6810 C   0  0  2  0  0  0  0  0  0  0  0  0
  -18.5670    4.4770  -15.8850 C   0  0  0  0  0  0  0  0  0  0  0  0
  -16.4470    3.3020  -15.0540 C   0  0  0  0  0  0  0  0  0  0  0  0
  -18.2530    5.9400  -16.1660 C   0  0  0  0  0  0  0  0  0  0  0  0
  -20.6260   -0.7970  -14.1970 N   0  0  0  0  0  0  0  0  0  0  0  0
  -21.9640   -0.6220  -13.6780 C   0  0  2  0  0  0  0  0  0  0  0  0
  -22.2340    0.8690  -13.8350 C   0  0  0  0  0  0  0  0  0  0  0  0
  -21.4250    1.6840  -13.4080 O   0  0  0  0  0  0  0  0  0  0  0  0
  -22.0240   -1.0590  -12.2060 C   0  0  0  0  0  0  0  0  0  0  0  0
  -21.2040   -2.3250  -11.9290 C   0  0  0  0  0  0  0  0  0  0  0  0
  -21.3110   -3.3140  -12.6540 O   0  0  0  0  0  0  0  0  0  0  0  0
  -20.3720   -2.2890  -10.8870 N   0  0  0  0  0  0  0  0  0  0  0  0
  -23.3440    1.2300  -14.4690 N   0  0  0  0  0  0  0  0  0  0  0  0
  -23.6850    2.6530  -14.7100 C   0  0  2  0  0  0  0  0  0  0  0  0
  -22.6890    3.4210  -15.6070 C   0  0  0  0  0  0  0  0  0  0  0  0
  -22.1440    4.4600  -15.2130 O   0  0  0  0  0  0  0  0  0  0  0  0
  -23.9630    3.4240  -13.3980 C   0  0  0  0  0  0  0  0  0  0  0  0
  -24.9050    2.7070  -12.4340 C   0  0  0  0  0  0  0  0  0  0  0  0
  -24.2160    1.5450  -11.7240 C   0  0  0  0  0  0  0  0  0  0  0  0
  -24.6940    0.4160  -11.7570 O   0  0  0  0  0  0  0  0  0  0  0  0
  -23.0590    1.8170  -11.1140 N   0  0  0  0  0  0  0  0  0  0  0  0
  -14.0390    6.1980  -13.6780 N   0  0  0  0  0  0  0  0  0  0  0  0
  -14.5510    5.6670  -12.4210 C   0  0  2  0  0  0  0  0  0  0  0  0
  -14.1940    6.5500  -11.2260 C   0  0  0  0  0  0  0  0  0  0  0  0
  -14.6250    6.3130  -10.1040 O   0  0  0  0  0  0  0  0  0  0  0  0
  -13.9730    4.2700  -12.2160 C   0  0  0  0  0  0  0  0  0  0  0  0
  -14.1780    3.8050  -10.8940 O   0  0  0  0  0  0  0  0  0  0  0  0
  -36.7530    1.1020   -6.8980 N   0  0  0  0  0  0  0  0  0  0  0  0
  -35.3320    1.3380   -6.6940 C   0  0  2  0  0  0  0  0  0  0  0  0
  -34.7450    2.0240   -7.9290 C   0  0  0  0  0  0  0  0  0  0  0  0
  -35.1400    1.7480   -9.0620 O   0  0  0  0  0  0  0  0  0  0  0  0
  -34.5610    0.0840   -6.2880 C   0  0  0  0  0  0  0  0  0  0  0  0
  -34.5060   -0.0220   -4.8630 O   0  0  0  0  0  0  0  0  0  0  0  0
  -30.8030    4.2540   -9.0900 N   0  0  0  0  0  0  0  0  0  0  0  0
  -29.4420    4.4320   -8.6480 C   0  0  2  0  0  0  0  0  0  0  0  0
  -28.9200    5.7830   -9.0340 C   0  0  0  0  0  0  0  0  0  0  0  0
  -29.1190    6.2550  -10.1410 O   0  0  0  0  0  0  0  0  0  0  0  0
  -28.5320    3.3410   -9.1840 C   0  0  0  0  0  0  0  0  0  0  0  0
  -29.2350    2.1740   -9.8670 C   0  0  0  0  0  0  0  0  0  0  0  0
  -28.3990    1.5910  -10.9990 C   0  0  0  0  0  0  0  0  0  0  0  0
  -28.7400    1.8210  -12.1830 O   0  0  0  0  0  0  0  0  0  0  0  0
  -27.3740    0.9290  -10.7100 O   0  0  0  0  0  0  0  0  0  0  0  0
  -28.2600    6.4250   -8.0870 N   0  0  0  0  0  0  0  0  0  0  0  0
  -27.5710    7.6460   -8.4020 C   0  0  2  0  0  0  0  0  0  0  0  0
  -26.1070    7.3210   -8.3580 C   0  0  0  0  0  0  0  0  0  0  0  0
  -25.5570    6.8950   -7.3460 O   0  0  0  0  0  0  0  0  0  0  0  0
  -27.9420    8.8200   -7.4830 C   0  0  2  0  0  0  0  0  0  0  0  0
  -27.7730    8.4530   -6.0170 C   0  0  0  0  0  0  0  0  0  0  0  0
  -29.3780    9.2280   -7.7170 C   0  0  0  0  0  0  0  0  0  0  0  0
  -28.0680    9.6120   -5.0900 C   0  0  0  0  0  0  0  0  0  0  0  0
  -25.4930    7.4600   -9.5130 N   0  0  0  0  0  0  0  0  0  0  0  0
  -24.0640    7.2880   -9.6360 C   0  0  2  0  0  0  0  0  0  0  0  0
  -23.4100    8.6130   -9.2880 C   0  0  0  0  0  0  0  0  0  0  0  0
  -24.0890    9.6410   -9.1930 O   0  0  0  0  0  0  0  0  0  0  0  0
  -23.7180    6.9000  -11.0740 C   0  0  2  0  0  0  0  0  0  0  0  0
  -24.6340    5.8770  -11.5020 O   0  0  0  0  0  0  0  0  0  0  0  0
  -22.2880    6.4140  -11.1750 C   0  0  0  0  0  0  0  0  0  0  0  0
  -22.0960    8.5880   -9.0920 N   0  0  0  0  0  0  0  0  0  0  0  0
  -21.3490    9.8150   -8.8820 C   0  0  0  0  0  0  0  0  0  0  0  0
  -20.5730    9.8640   -7.6020 C   0  0  0  0  0  0  0  0  0  0  0  0
  -21.0090    9.3830   -6.5940 O   0  0  0  0  0  0  0  0  0  0  0  0
  -13.1430    5.6590   -0.2340 N   0  0  0  0  0  0  0  0  0  0  0  0
  -13.4600    5.7910   -1.6650 C   0  0  2  0  0  0  0  0  0  0  0  0
  -13.7790    7.2580   -1.7250 C   0  0  0  0  0  0  0  0  0  0  0  0
  -14.9320    7.6470   -1.7010 O   0  0  0  0  0  0  0  0  0  0  0  0
  -14.7300    5.0540   -2.0480 C   0  0  0  0  0  0  0  0  0  0  0  0
  -15.4230    3.9220   -1.2960 C   0  0  0  0  0  0  0  0  0  0  0  0
  -15.3980    4.0620    0.2090 C   0  0  0  0  0  0  0  0  0  0  0  0
  -16.8700    3.8210   -1.7490 C   0  0  0  0  0  0  0  0  0  0  0  0
  -13.5190    7.5670   -6.1010 N   0  0  0  0  0  0  0  0  0  0  0  0
  -14.1480    6.5130   -6.8050 C   0  0  2  0  0  0  0  0  0  0  0  0
  -15.5870    6.8080   -7.0020 C   0  0  0  0  0  0  0  0  0  0  0  0
  -16.2910    7.0360   -6.0470 O   0  0  0  0  0  0  0  0  0  0  0  0
  -14.0910    5.2840   -5.9720 C   0  0  0  0  0  0  0  0  0  0  0  0
  -13.9280    4.0300   -6.7740 C   0  0  0  0  0  0  0  0  0  0  0  0
  -13.7090    2.8630   -5.8650 C   0  0  0  0  0  0  0  0  0  0  0  0
  -12.7960    2.8760   -5.0420 O   0  0  0  0  0  0  0  0  0  0  0  0
  -14.5560    1.8460   -5.9900 N   0  0  0  0  0  0  0  0  0  0  0  0
  -16.0200    6.7300   -8.2490 N   0  0  0  0  0  0  0  0  0  0  0  0
  -17.4080    6.9320   -8.6280 C   0  0  2  0  0  0  0  0  0  0  0  0
  -18.3190    5.9900   -7.8700 C   0  0  0  0  0  0  0  0  0  0  0  0
  -18.1140    4.7760   -7.9090 O   0  0  0  0  0  0  0  0  0  0  0  0
  -17.5590    6.6900  -10.1230 C   0  0  0  0  0  0  0  0  0  0  0  0
  -18.9160    6.8820  -10.7460 C   0  0  0  0  0  0  0  0  0  0  0  0
  -19.2270    8.3530  -10.6710 C   0  0  0  0  0  0  0  0  0  0  0  0
  -18.7980    6.4410  -12.1860 C   0  0  0  0  0  0  0  0  0  0  0  0
  -19.3250    6.5630   -7.2080 N   0  0  0  0  0  0  0  0  0  0  0  0
  -20.1590    5.8090   -6.2900 C   0  0  2  0  0  0  0  0  0  0  0  0
  -21.6070    5.7040   -6.7340 C   0  0  0  0  0  0  0  0  0  0  0  0
  -22.3750    6.6740   -6.6830 O   0  0  0  0  0  0  0  0  0  0  0  0
  -20.0930    6.4230   -4.8850 C   0  0  0  0  0  0  0  0  0  0  0  0
  -18.9010    6.0210   -4.0660 C   0  0  0  0  0  0  0  0  0  0  0  0
  -18.2670    7.2540   -3.4630 C   0  0  0  0  0  0  0  0  0  0  0  0
  -19.0610    7.8570   -2.2970 C   0  0  0  0  0  0  0  0  0  0  0  0
  -18.1860    8.5250   -1.2640 N   0  0  0  0  0  0  0  0  0  0  0  0
  -21.9970    4.5130   -7.1470 N   0  0  0  0  0  0  0  0  0  0  0  0
  -23.4130    4.2080   -7.3520 C   0  0  2  0  0  0  0  0  0  0  0  0
  -24.0270    4.1020   -5.9730 C   0  0  0  0  0  0  0  0  0  0  0  0
  -23.3910    3.6190   -5.0410 O   0  0  0  0  0  0  0  0  0  0  0  0
  -23.5800    2.8880   -8.0970 C   0  0  0  0  0  0  0  0  0  0  0  0
  -25.0030    2.5070   -8.4540 C   0  0  0  0  0  0  0  0  0  0  0  0
  -26.0030    2.0890   -7.0150 S   0  0  0  0  0  0  0  0  0  0  0  0
  -27.0660    0.8110   -7.6730 C   0  0  0  0  0  0  0  0  0  0  0  0
  -25.2570    4.5810   -5.8410 N   0  0  0  0  0  0  0  0  0  0  0  0
  -25.9670    4.4760   -4.5900 C   0  0  2  0  0  0  0  0  0  0  0  0
  -27.4400    4.2370   -4.8830 C   0  0  0  0  0  0  0  0  0  0  0  0
  -28.0730    5.0250   -5.5910 O   0  0  0  0  0  0  0  0  0  0  0  0
  -25.7730    5.7350   -3.7330 C   0  0  2  0  0  0  0  0  0  0  0  0
  -27.0380    6.3500   -3.4780 O   0  0  0  0  0  0  0  0  0  0  0  0
  -24.8300    6.7240   -4.4200 C   0  0  0  0  0  0  0  0  0  0  0  0
  -27.9800    3.1440   -4.3500 N   0  0  0  0  0  0  0  0  0  0  0  0
  -29.3680    2.7810   -4.6170 C   0  0  2  0  0  0  0  0  0  0  0  0
  -30.2830    3.6720   -3.8110 C   0  0  0  0  0  0  0  0  0  0  0  0
  -30.2640    3.6280   -2.5970 O   0  0  0  0  0  0  0  0  0  0  0  0
  -29.6460    1.2910   -4.3310 C   0  0  0  0  0  0  0  0  0  0  0  0
  -30.3900    1.0870   -3.0200 C   0  0  0  0  0  0  0  0  0  0  0  0
  -30.4780    0.7210   -5.4440 C   0  0  0  0  0  0  0  0  0  0  0  0
  -29.5700    8.4570    4.8030 N   0  0  0  0  0  0  0  0  0  0  0  0
  -29.3600    9.7540    4.1790 C   0  0  2  0  0  0  0  0  0  0  0  0
  -30.6400   10.5030    3.9420 C   0  0  0  0  0  0  0  0  0  0  0  0
  -30.7320   11.2870    2.9950 O   0  0  0  0  0  0  0  0  0  0  0  0
  -28.5940    9.6210    2.8810 C   0  0  0  0  0  0  0  0  0  0  0  0
  -27.1570    9.3480    3.0720 C   0  0  0  0  0  0  0  0  0  0  0  0
  -26.3050    9.9340    3.9650 C   0  0  0  0  0  0  0  0  0  0  0  0
  -26.3410    8.4430    2.3100 C   0  0  0  0  0  0  0  0  0  0  0  0
  -25.0460    9.4490    3.8170 N   0  0  0  0  0  0  0  0  0  0  0  0
  -25.0080    8.5500    2.8420 C   0  0  0  0  0  0  0  0  0  0  0  0
  -26.5770    7.5730    1.2910 C   0  0  0  0  0  0  0  0  0  0  0  0
  -23.9680    7.8170    2.3510 C   0  0  0  0  0  0  0  0  0  0  0  0
  -25.5210    6.8260    0.8060 C   0  0  0  0  0  0  0  0  0  0  0  0
  -24.2440    6.9570    1.3170 C   0  0  0  0  0  0  0  0  0  0  0  0
  -24.2660   11.8060   -1.6500 N   0  0  0  0  0  0  0  0  0  0  0  0
  -24.1920   10.4480   -2.2050 C   0  0  2  0  0  0  0  0  0  0  0  0
  -23.9060   10.4680   -3.7090 C   0  0  0  0  0  0  0  0  0  0  0  0
  -22.8000   10.1040   -4.1390 O   0  0  0  0  0  0  0  0  0  0  0  0
  -25.4630    9.6550   -1.8970 C   0  0  0  0  0  0  0  0  0  0  0  0
  -26.7560   10.3400   -2.3160 C   0  0  0  0  0  0  0  0  0  0  0  0
  -27.8360   10.3390   -1.2500 C   0  0  0  0  0  0  0  0  0  0  0  0
  -27.5440   10.3720   -0.0610 O   0  0  0  0  0  0  0  0  0  0  0  0
  -29.0980   10.3300   -1.6770 N   0  0  0  0  0  0  0  0  0  0  0  0
  -24.8900   10.9030   -4.5030 N   0  0  0  0  0  0  0  0  0  0  0  0
  -24.7080   11.0450   -5.9530 C   0  0  0  0  0  0  0  0  0  0  0  0
  -24.0710   12.3850   -6.2820 C   0  0  0  0  0  0  0  0  0  0  0  0
  -23.4640   13.0240   -5.4070 O   0  0  0  0  0  0  0  0  0  0  0  0
  2  1  1  6
  3  2  1  0
  4  3  2  0
  5  2  1  0
  6  5  1  0
  7  6  2  0
  8  6  1  0
  9  7  1  0
 10  8  2  0
 11 10  1  0
 11  9  2  0
 13 12  1  6
 14 13  1  0
 15 14  2  0
 16 13  1  0
 17 16  1  0
 16 18  1  1
 19 14  1  0
 20 19  1  1
 21 20  1  0
 22 21  2  0
 23 20  1  0
 24 23  1  0
 23 25  1  6
 26 24  1  0
 28 27  1  1
 29 28  1  0
 30 29  2  0
 31 28  1  0
 32 31  1  0
 33 32  2  0
 34 32  1  0
 35 29  1  0
 36 35  1  0
 37 36  1  0
 38 37  2  0
 36 39  1  1
 40 39  1  0
 41 40  1  0
 42 41  2  0
 43 41  1  0
 45 44  1  6
 46 45  1  0
 47 46  2  0
 48 45  1  0
 49 48  1  0
 51 50  1  6
 52 51  1  0
 53 52  2  0
 54 51  1  0
 55 54  1  0
 57 56  1  6
 58 57  1  0
 59 58  2  0
 60 57  1  0
 61 60  1  0
 62 61  1  0
 63 62  2  0
 64 62  1  0
 65 58  1  0
 66 65  1  1
 67 66  1  0
 68 67  2  0
 69 66  1  0
 70 69  1  0
 69 71  1  1
 72 70  1  0
 73 67  1  0
 74 73  1  6
 75 74  1  0
 76 75  2  0
 77 74  1  0
 78 77  1  0
 77 79  1  1
 80 75  1  0
 81 80  1  0
 82 81  1  0
 83 82  2  0
 85 84  1  1
 86 85  1  0
 87 86  2  0
 88 85  1  0
 89 88  1  0
 90 89  1  0
 91 89  1  0
 93 92  1  1
 94 93  1  0
 95 94  2  0
 96 93  1  0
 97 96  1  0
 98 97  1  0
 99 98  2  0
100 98  1  0
101 94  1  0
102101  1  0
103102  1  0
104103  2  0
102105  1  6
106105  1  0
107106  1  0
108106  1  0
109103  1  0
110109  1  0
111110  1  0
112111  2  0
110113  1  1
114113  1  0
115114  1  0
116115  1  0
117116  1  0
118111  1  0
119118  1  0
120119  1  0
121120  2  0
119122  1  1
123122  1  0
124123  1  0
125124  1  0
126120  1  0
127126  1  6
128127  1  0
129128  2  0
130127  1  0
131130  1  0
130132  1  6
133128  1  0
134133  1  1
135134  1  0
136135  2  0
137134  1  0
138137  1  0
139137  1  0
141140  1  6
142141  1  0
143142  2  0
144141  1  0
145144  1  0
146145  2  0
147145  1  0
148146  1  0
149148  1  0
149147  2  0
150147  1  0
151149  1  0
152150  2  0
153152  1  0
153151  2  0
155154  1  6
156155  1  0
157156  2  0
158155  1  0
159158  1  0
160159  1  0
161160  2  0
162160  1  0
163156  1  0
164163  1  0
165164  1  0
166165  2  0
M  END
$$$$
