
     RDKit          3D

130125  0  0  0  0  0  0  0  0999 V2000
  -21.3520   11.2320   39.5430 N   0  0  0  0  0  0  0  0  0  0  0  0
  -20.3990   11.4360   38.4500 C   0  0  2  0  0  0  0  0  0  0  0  0
  -20.7080   10.5800   37.2150 C   0  0  0  0  0  0  0  0  0  0  0  0
  -20.1060   10.7610   36.1550 O   0  0  0  0  0  0  0  0  0  0  0  0
  -18.9480   11.1750   38.9050 C   0  0  2  0  0  0  0  0  0  0  0  0
  -18.7720    9.7770   39.1670 O   0  0  0  0  0  0  0  0  0  0  0  0
  -18.6060   12.0030   40.1560 C   0  0  0  0  0  0  0  0  0  0  0  0
  -21.6540    9.6550   37.3640 N   0  0  0  0  0  0  0  0  0  0  0  0
  -21.9650    8.6790   36.3260 C   0  0  0  0  0  0  0  0  0  0  0  0
  -21.3240    7.3400   36.6290 C   0  0  0  0  0  0  0  0  0  0  0  0
  -21.7100    6.3150   36.0580 O   0  0  0  0  0  0  0  0  0  0  0  0
  -20.3480    7.3590   37.5380 N   0  0  0  0  0  0  0  0  0  0  0  0
  -19.6050    6.1640   37.9160 C   0  0  2  0  0  0  0  0  0  0  0  0
  -19.6450    5.8830   39.4190 C   0  0  0  0  0  0  0  0  0  0  0  0
  -19.6190    4.7240   39.8320 O   0  0  0  0  0  0  0  0  0  0  0  0
  -18.1500    6.2740   37.4650 C   0  0  0  0  0  0  0  0  0  0  0  0
  -17.5560    4.9420   37.0930 C   0  0  0  0  0  0  0  0  0  0  0  0
  -16.0830    4.8830   37.4130 C   0  0  0  0  0  0  0  0  0  0  0  0
  -15.5580    3.4610   37.2540 C   0  0  0  0  0  0  0  0  0  0  0  0
  -15.9340    2.8570   35.9460 N   0  0  0  0  0  0  0  0  0  0  0  0
  -26.9730   11.6140   35.9090 N   0  0  0  0  0  0  0  0  0  0  0  0
  -25.5400   11.8190   35.7290 C   0  0  2  0  0  0  0  0  0  0  0  0
  -25.2740   12.7510   34.5440 C   0  0  0  0  0  0  0  0  0  0  0  0
  -25.9480   12.6540   33.5170 O   0  0  0  0  0  0  0  0  0  0  0  0
  -24.8490   10.4930   35.5220 C   0  0  0  0  0  0  0  0  0  0  0  0
  -24.3260   13.6800   34.6820 N   0  0  0  0  0  0  0  0  0  0  0  0
  -23.6610   13.9810   35.9420 C   0  0  2  0  0  0  0  0  0  0  0  0
  -24.3390   15.1760   36.6180 C   0  0  0  0  0  0  0  0  0  0  0  0
  -24.3830   16.2800   36.0630 O   0  0  0  0  0  0  0  0  0  0  0  0
  -22.1790   14.2660   35.7050 C   0  0  0  0  0  0  0  0  0  0  0  0
   -7.9620    5.1660   42.6790 N   0  0  0  0  0  0  0  0  0  0  0  0
   -8.7060    4.0450   42.0950 C   0  0  2  0  0  0  0  0  0  0  0  0
   -8.8330    4.1700   40.5720 C   0  0  0  0  0  0  0  0  0  0  0  0
   -8.7730    3.1670   39.8500 O   0  0  0  0  0  0  0  0  0  0  0  0
  -10.0840    3.8630   42.7750 C   0  0  2  0  0  0  0  0  0  0  0  0
   -9.8990    3.4360   44.2450 C   0  0  0  0  0  0  0  0  0  0  0  0
  -10.9760    2.8700   42.0030 C   0  0  0  0  0  0  0  0  0  0  0  0
   -9.1780    2.0990   44.4480 C   0  0  0  0  0  0  0  0  0  0  0  0
   -8.9750    5.4000   40.0840 N   0  0  0  0  0  0  0  0  0  0  0  0
   -9.0230    5.6280   38.6420 C   0  0  2  0  0  0  0  0  0  0  0  0
   -7.6380    5.8210   38.0310 C   0  0  0  0  0  0  0  0  0  0  0  0
   -7.5180    6.1930   36.8600 O   0  0  0  0  0  0  0  0  0  0  0  0
   -9.9830    6.7760   38.2750 C   0  0  0  0  0  0  0  0  0  0  0  0
   -9.4300    8.1470   38.6290 C   0  0  0  0  0  0  0  0  0  0  0  0
   -8.3710    8.2690   39.2420 O   0  0  0  0  0  0  0  0  0  0  0  0
  -10.1510    9.1880   38.2390 N   0  0  0  0  0  0  0  0  0  0  0  0
   -6.5960    5.5990   38.8390 N   0  0  0  0  0  0  0  0  0  0  0  0
   -5.2100    5.5610   38.3530 C   0  0  2  0  0  0  0  0  0  0  0  0
   -4.6460    6.8980   37.8520 C   0  0  0  0  0  0  0  0  0  0  0  0
   -3.5300    6.9430   37.3240 O   0  0  0  0  0  0  0  0  0  0  0  0
   -5.0610    4.4770   37.2680 C   0  0  0  0  0  0  0  0  0  0  0  0
   -5.0210    3.0810   37.8070 C   0  0  0  0  0  0  0  0  0  0  0  0
   -4.5790    2.0090   37.0620 N   0  0  0  0  0  0  0  0  0  0  0  0
   -5.3510    2.5830   39.0230 C   0  0  0  0  0  0  0  0  0  0  0  0
   -4.6500    0.9110   37.7920 C   0  0  0  0  0  0  0  0  0  0  0  0
   -5.1160    1.2310   38.9850 N   0  0  0  0  0  0  0  0  0  0  0  0
  -26.1320    5.9760   34.8750 N   0  0  0  0  0  0  0  0  0  0  0  0
  -24.7080    6.0360   34.5290 C   0  0  2  0  0  0  0  0  0  0  0  0
  -24.4540    6.6910   33.1640 C   0  0  0  0  0  0  0  0  0  0  0  0
  -23.2980    6.9310   32.7900 O   0  0  0  0  0  0  0  0  0  0  0  0
  -24.0760    4.6370   34.5760 C   0  0  0  0  0  0  0  0  0  0  0  0
  -24.1900    3.9580   33.3320 O   0  0  0  0  0  0  0  0  0  0  0  0
  -25.5320    6.9780   32.4340 N   0  0  0  0  0  0  0  0  0  0  0  0
  -25.4340    7.5500   31.0910 C   0  0  2  0  0  0  0  0  0  0  0  0
  -26.0970    8.9240   30.9970 C   0  0  0  0  0  0  0  0  0  0  0  0
  -27.3230    9.0380   30.9600 O   0  0  0  0  0  0  0  0  0  0  0  0
  -26.0220    6.5840   30.0490 C   0  0  0  0  0  0  0  0  0  0  0  0
  -25.8460    6.9010   28.5570 C   0  0  0  0  0  0  0  0  0  0  0  0
  -24.3920    7.2360   28.2110 C   0  0  0  0  0  0  0  0  0  0  0  0
  -26.3590    5.7570   27.6900 C   0  0  0  0  0  0  0  0  0  0  0  0
  -28.7350    2.5300   36.1790 N   0  0  0  0  0  0  0  0  0  0  0  0
  -28.0480    1.4830   35.4240 C   0  0  2  0  0  0  0  0  0  0  0  0
  -26.6740    1.1160   36.0060 C   0  0  0  0  0  0  0  0  0  0  0  0
  -25.9300    0.3370   35.4060 O   0  0  0  0  0  0  0  0  0  0  0  0
  -27.9180    1.8930   33.9500 C   0  0  0  0  0  0  0  0  0  0  0  0
  -26.3450    1.6580   37.1770 N   0  0  0  0  0  0  0  0  0  0  0  0
  -25.0040    1.4820   37.7580 C   0  0  2  0  0  0  0  0  0  0  0  0
  -24.9360    0.4030   38.8570 C   0  0  0  0  0  0  0  0  0  0  0  0
  -24.9010    0.7010   40.0570 O   0  0  0  0  0  0  0  0  0  0  0  0
  -24.4050    2.8390   38.2290 C   0  0  2  0  0  0  0  0  0  0  0  0
  -22.9380    2.6840   38.6170 C   0  0  0  0  0  0  0  0  0  0  0  0
  -25.2150    3.4460   39.3790 C   0  0  0  0  0  0  0  0  0  0  0  0
  -22.3570    3.9390   39.1620 C   0  0  0  0  0  0  0  0  0  0  0  0
  -24.9080   -0.8550   38.4260 N   0  0  0  0  0  0  0  0  0  0  0  0
  -24.9130   -1.9880   39.3540 C   0  0  2  0  0  0  0  0  0  0  0  0
  -23.6010   -2.1340   40.1260 C   0  0  0  0  0  0  0  0  0  0  0  0
  -23.6200   -2.3840   41.3290 O   0  0  0  0  0  0  0  0  0  0  0  0
  -25.2780   -3.3230   38.6530 C   0  0  2  0  0  0  0  0  0  0  0  0
  -24.4120   -3.5410   37.5330 O   0  0  0  0  0  0  0  0  0  0  0  0
  -26.7340   -3.3060   38.1720 C   0  0  0  0  0  0  0  0  0  0  0  0
  -22.4740   -1.9650   39.4380 N   0  0  0  0  0  0  0  0  0  0  0  0
  -21.1510   -2.1110   40.0640 C   0  0  2  0  0  0  0  0  0  0  0  0
  -20.1620   -1.0510   39.5810 C   0  0  0  0  0  0  0  0  0  0  0  0
  -20.2650   -0.5810   38.4490 O   0  0  0  0  0  0  0  0  0  0  0  0
  -20.5850   -3.5220   39.8280 C   0  0  0  0  0  0  0  0  0  0  0  0
  -20.5010   -3.9510   38.3580 C   0  0  0  0  0  0  0  0  0  0  0  0
  -19.8090   -5.2960   38.1530 C   0  0  0  0  0  0  0  0  0  0  0  0
  -20.0190   -5.9070   37.0830 O   0  0  0  0  0  0  0  0  0  0  0  0
  -19.0570   -5.7470   39.0460 O   0  0  0  0  0  0  0  0  0  0  0  0
  -19.2070   -0.6860   40.4400 N   0  0  0  0  0  0  0  0  0  0  0  0
  -18.1850    0.3050   40.0820 C   0  0  2  0  0  0  0  0  0  0  0  0
  -16.8100    0.0780   40.7230 C   0  0  0  0  0  0  0  0  0  0  0  0
  -15.9130    0.9110   40.5820 O   0  0  0  0  0  0  0  0  0  0  0  0
  -18.6830    1.7330   40.3590 C   0  0  0  0  0  0  0  0  0  0  0  0
  -18.8420    2.0310   41.8430 C   0  0  0  0  0  0  0  0  0  0  0  0
  -18.4500    1.2420   42.7000 O   0  0  0  0  0  0  0  0  0  0  0  0
  -19.4240    3.1850   42.1500 N   0  0  0  0  0  0  0  0  0  0  0  0
  -13.1110   -1.8330   41.3160 N   0  0  0  0  0  0  0  0  0  0  0  0
  -12.0320   -2.2990   40.4620 C   0  0  2  0  0  0  0  0  0  0  0  0
  -11.4350   -3.5700   41.0650 C   0  0  0  0  0  0  0  0  0  0  0  0
  -11.3330   -3.6770   42.2870 O   0  0  0  0  0  0  0  0  0  0  0  0
  -10.9410   -1.2260   40.3830 C   0  0  0  0  0  0  0  0  0  0  0  0
  -11.3500    0.0790   39.7060 C   0  0  0  0  0  0  0  0  0  0  0  0
  -11.1380    0.0280   38.2020 C   0  0  0  0  0  0  0  0  0  0  0  0
   -9.7280   -0.1720   37.8450 N   0  0  0  0  0  0  0  0  0  0  0  0
   -9.3150   -0.6730   36.6850 C   0  0  0  0  0  0  0  0  0  0  0  0
  -10.1910   -1.0410   35.7650 N   0  0  0  0  0  0  0  0  0  0  0  0
   -8.0220   -0.8080   36.4490 N   0  0  0  0  0  0  0  0  0  0  0  0
   -4.7080   -5.4770   41.9290 N   0  0  0  0  0  0  0  0  0  0  0  0
   -3.4770   -5.7410   41.2020 C   0  0  2  0  0  0  0  0  0  0  0  0
   -2.5370   -6.5510   42.0710 C   0  0  0  0  0  0  0  0  0  0  0  0
   -2.5870   -6.4480   43.2980 O   0  0  0  0  0  0  0  0  0  0  0  0
   -2.7980   -4.4290   40.8020 C   0  0  0  0  0  0  0  0  0  0  0  0
   -3.5400   -3.7100   39.7200 C   0  0  0  0  0  0  0  0  0  0  0  0
   -3.1760   -3.8690   38.3870 C   0  0  0  0  0  0  0  0  0  0  0  0
   -4.6320   -2.8910   40.0210 C   0  0  0  0  0  0  0  0  0  0  0  0
   -3.8720   -3.2230   37.3740 C   0  0  0  0  0  0  0  0  0  0  0  0
   -5.3370   -2.2410   39.0170 C   0  0  0  0  0  0  0  0  0  0  0  0
   -4.9480   -2.4130   37.6940 C   0  0  0  0  0  0  0  0  0  0  0  0
   -5.6370   -1.7760   36.6910 O   0  0  0  0  0  0  0  0  0  0  0  0
  2  1  1  1
  3  2  1  0
  4  3  2  0
  5  2  1  0
  6  5  1  0
  5  7  1  1
  8  3  1  0
  9  8  1  0
 10  9  1  0
 11 10  2  0
 12 10  1  0
 13 12  1  0
 14 13  1  0
 15 14  2  0
 13 16  1  1
 17 16  1  0
 18 17  1  0
 19 18  1  0
 20 19  1  0
 22 21  1  0
 23 22  1  0
 24 23  2  0
 22 25  1  6
 26 23  1  0
 27 26  1  0
 28 27  1  0
 29 28  2  0
 27 30  1  6
 32 31  1  1
 33 32  1  0
 34 33  2  0
 35 32  1  0
 36 35  1  0
 35 37  1  6
 38 36  1  0
 39 33  1  0
 40 39  1  0
 41 40  1  0
 42 41  2  0
 40 43  1  1
 44 43  1  0
 45 44  2  0
 46 44  1  0
 47 41  1  0
 48 47  1  0
 49 48  1  0
 50 49  2  0
 48 51  1  6
 52 51  1  0
 53 52  1  0
 54 52  2  0
 55 53  2  0
 56 55  1  0
 56 54  1  0
 58 57  1  6
 59 58  1  0
 60 59  2  0
 61 58  1  0
 62 61  1  0
 63 59  1  0
 64 63  1  0
 65 64  1  0
 66 65  2  0
 64 67  1  6
 68 67  1  0
 69 68  1  0
 70 68  1  0
 72 71  1  0
 73 72  1  0
 74 73  2  0
 72 75  1  6
 76 73  1  0
 77 76  1  1
 78 77  1  0
 79 78  2  0
 80 77  1  0
 81 80  1  0
 80 82  1  1
 83 81  1  0
 84 78  1  0
 85 84  1  6
 86 85  1  0
 87 86  2  0
 88 85  1  0
 89 88  1  0
 88 90  1  6
 91 86  1  0
 92 91  1  0
 93 92  1  0
 94 93  2  0
 92 95  1  6
 96 95  1  0
 97 96  1  0
 98 97  2  0
 99 97  1  0
100 93  1  0
101100  1  0
102101  1  0
103102  2  0
101104  1  1
105104  1  0
106105  2  0
107105  1  0
109108  1  1
110109  1  0
111110  2  0
112109  1  0
113112  1  0
114113  1  0
115114  1  0
116115  1  0
117116  1  0
118116  2  0
120119  1  1
121120  1  0
122121  2  0
123120  1  0
124123  1  0
125124  2  0
126124  1  0
127125  1  0
128126  2  0
129127  2  0
129128  1  0
130129  1  0
M  END
$$$$
