
     RDKit          3D

156152  0  0  0  0  0  0  0  0999 V2000
   61.6570  -28.3580   23.0650 N   0  0  0  0  0  0  0  0  0  0  0  0
   60.8300  -29.2790   23.8460 C   0  0  2  0  0  0  0  0  0  0  0  0
   60.0130  -30.1530   22.9120 C   0  0  0  0  0  0  0  0  0  0  0  0
   59.3600  -29.6360   22.0150 O   0  0  0  0  0  0  0  0  0  0  0  0
   59.8750  -28.4860   24.7260 C   0  0  0  0  0  0  0  0  0  0  0  0
   59.5260  -29.2100   25.9830 C   0  0  0  0  0  0  0  0  0  0  0  0
   58.5710  -30.2050   25.9830 C   0  0  0  0  0  0  0  0  0  0  0  0
   60.1760  -28.9290   27.1790 C   0  0  0  0  0  0  0  0  0  0  0  0
   58.2590  -30.8970   27.1530 C   0  0  0  0  0  0  0  0  0  0  0  0
   59.8710  -29.6090   28.3420 C   0  0  0  0  0  0  0  0  0  0  0  0
   58.9170  -30.5880   28.3240 C   0  0  0  0  0  0  0  0  0  0  0  0
   58.6050  -31.2700   29.4640 O   0  0  0  0  0  0  0  0  0  0  0  0
   57.7770  -17.6910   32.2370 N   0  0  0  0  0  0  0  0  0  0  0  0
   58.9990  -17.9430   31.4830 C   0  0  2  0  0  0  0  0  0  0  0  0
   59.7500  -19.1910   31.8920 C   0  0  0  0  0  0  0  0  0  0  0  0
   60.9790  -19.2240   31.8500 O   0  0  0  0  0  0  0  0  0  0  0  0
   59.9040  -16.7190   31.5240 C   0  0  0  0  0  0  0  0  0  0  0  0
   59.1460  -15.4500   31.2250 C   0  0  0  0  0  0  0  0  0  0  0  0
   58.9580  -15.0770   30.0750 O   0  0  0  0  0  0  0  0  0  0  0  0
   58.6640  -14.8010   32.2580 N   0  0  0  0  0  0  0  0  0  0  0  0
   59.0050  -20.2400   32.2280 N   0  0  0  0  0  0  0  0  0  0  0  0
   59.6060  -21.5460   32.4120 C   0  0  0  0  0  0  0  0  0  0  0  0
   60.3810  -21.9330   31.1610 C   0  0  0  0  0  0  0  0  0  0  0  0
   60.1040  -21.4400   30.0700 O   0  0  0  0  0  0  0  0  0  0  0  0
   61.3680  -22.8010   31.3240 N   0  0  0  0  0  0  0  0  0  0  0  0
   62.2260  -23.2100   30.2300 C   0  0  0  0  0  0  0  0  0  0  0  0
   62.8180  -24.5850   30.4860 C   0  0  0  0  0  0  0  0  0  0  0  0
   62.4680  -25.2500   31.4560 O   0  0  0  0  0  0  0  0  0  0  0  0
   63.7120  -25.0300   29.6120 N   0  0  0  0  0  0  0  0  0  0  0  0
   64.2640  -26.3730   29.7370 C   0  0  2  0  0  0  0  0  0  0  0  0
   65.6150  -26.4580   29.0610 C   0  0  0  0  0  0  0  0  0  0  0  0
   65.9780  -25.5680   28.3120 O   0  0  0  0  0  0  0  0  0  0  0  0
   63.3030  -27.3920   29.1300 C   0  0  0  0  0  0  0  0  0  0  0  0
   63.9090  -28.6650   29.0290 O   0  0  0  0  0  0  0  0  0  0  0  0
   66.3650  -27.5010   29.3850 N   0  0  0  0  0  0  0  0  0  0  0  0
   67.6300  -27.7910   28.7390 C   0  0  2  0  0  0  0  0  0  0  0  0
   67.4080  -28.5100   27.4430 C   0  0  0  0  0  0  0  0  0  0  0  0
   68.3240  -28.6370   26.6370 O   0  0  0  0  0  0  0  0  0  0  0  0
   68.4450  -28.6990   29.6240 C   0  0  0  0  0  0  0  0  0  0  0  0
   67.5810  -29.6010   30.3140 O   0  0  0  0  0  0  0  0  0  0  0  0
   66.1980  -29.0200   27.2560 N   0  0  0  0  0  0  0  0  0  0  0  0
   65.8330  -29.6440   25.9880 C   0  0  2  0  0  0  0  0  0  0  0  0
   65.7060  -28.5610   24.9190 C   0  0  0  0  0  0  0  0  0  0  0  0
   66.0100  -28.7940   23.7550 O   0  0  0  0  0  0  0  0  0  0  0  0
   64.5450  -30.4350   26.1110 C   0  0  0  0  0  0  0  0  0  0  0  0
   69.3630  -22.4640   29.2870 N   0  0  0  0  0  0  0  0  0  0  0  0
   68.0900  -23.1370   29.0600 C   0  0  2  0  0  0  0  0  0  0  0  0
   67.0630  -22.1760   28.4740 C   0  0  0  0  0  0  0  0  0  0  0  0
   67.2150  -20.9620   28.5880 O   0  0  0  0  0  0  0  0  0  0  0  0
   67.5560  -23.7280   30.3640 C   0  0  0  0  0  0  0  0  0  0  0  0
   66.7140  -22.8090   31.0470 O   0  0  0  0  0  0  0  0  0  0  0  0
   55.7100  -20.4130   29.5860 N   0  0  0  0  0  0  0  0  0  0  0  0
   55.4410  -21.6030   30.3960 C   0  0  2  0  0  0  0  0  0  0  0  0
   55.2010  -21.1850   31.8490 C   0  0  0  0  0  0  0  0  0  0  0  0
   56.1300  -20.7540   32.5360 O   0  0  0  0  0  0  0  0  0  0  0  0
   56.6440  -22.5500   30.3330 C   0  0  0  0  0  0  0  0  0  0  0  0
   56.4180  -23.8690   31.0050 C   0  0  0  0  0  0  0  0  0  0  0  0
   55.3930  -24.2010   31.8530 C   0  0  0  0  0  0  0  0  0  0  0  0
   57.2170  -25.0460   30.8670 C   0  0  0  0  0  0  0  0  0  0  0  0
   55.5110  -25.5160   32.2470 N   0  0  0  0  0  0  0  0  0  0  0  0
   56.6220  -26.0550   31.6530 C   0  0  0  0  0  0  0  0  0  0  0  0
   58.3760  -25.3470   30.1530 C   0  0  0  0  0  0  0  0  0  0  0  0
   57.1480  -27.3350   31.7420 C   0  0  0  0  0  0  0  0  0  0  0  0
   58.8980  -26.6200   30.2480 C   0  0  0  0  0  0  0  0  0  0  0  0
   58.2850  -27.5970   31.0330 C   0  0  0  0  0  0  0  0  0  0  0  0
   54.2160  -21.7400   35.8050 N   0  0  0  0  0  0  0  0  0  0  0  0
   54.1600  -22.7200   36.8860 C   0  0  2  0  0  0  0  0  0  0  0  0
   54.0030  -22.0860   38.2630 C   0  0  0  0  0  0  0  0  0  0  0  0
   53.8260  -20.8710   38.3830 O   0  0  0  0  0  0  0  0  0  0  0  0
   55.3740  -23.6440   36.8610 C   0  0  0  0  0  0  0  0  0  0  0  0
   56.7240  -22.9570   36.9130 C   0  0  0  0  0  0  0  0  0  0  0  0
   57.1430  -22.1370   35.8770 C   0  0  0  0  0  0  0  0  0  0  0  0
   57.5950  -23.1620   37.9800 C   0  0  0  0  0  0  0  0  0  0  0  0
   58.3840  -21.5230   35.9060 C   0  0  0  0  0  0  0  0  0  0  0  0
   58.8360  -22.5520   38.0220 C   0  0  0  0  0  0  0  0  0  0  0  0
   59.2280  -21.7340   36.9820 C   0  0  0  0  0  0  0  0  0  0  0  0
   60.4650  -21.1220   37.0050 O   0  0  0  0  0  0  0  0  0  0  0  0
   50.8190  -28.8960   28.8180 N   0  0  0  0  0  0  0  0  0  0  0  0
   51.9930  -29.6810   29.1820 C   0  0  2  0  0  0  0  0  0  0  0  0
   51.5940  -31.0450   29.7430 C   0  0  0  0  0  0  0  0  0  0  0  0
   50.7910  -31.1180   30.6680 O   0  0  0  0  0  0  0  0  0  0  0  0
   52.8050  -28.9120   30.2190 C   0  0  0  0  0  0  0  0  0  0  0  0
   54.0290  -29.6340   30.6770 C   0  0  0  0  0  0  0  0  0  0  0  0
   54.1200  -30.2280   31.9150 N   0  0  0  0  0  0  0  0  0  0  0  0
   55.2090  -29.8760   30.0580 C   0  0  0  0  0  0  0  0  0  0  0  0
   55.3040  -30.8000   32.0410 C   0  0  0  0  0  0  0  0  0  0  0  0
   55.9840  -30.6010   30.9270 N   0  0  0  0  0  0  0  0  0  0  0  0
   55.6940  -36.4420   32.6750 N   0  0  0  0  0  0  0  0  0  0  0  0
   56.0360  -37.8670   32.6240 C   0  0  2  0  0  0  0  0  0  0  0  0
   55.6370  -38.6460   33.8710 C   0  0  0  0  0  0  0  0  0  0  0  0
   55.2910  -39.8280   33.7850 O   0  0  0  0  0  0  0  0  0  0  0  0
   57.5360  -38.0350   32.4010 C   0  0  0  0  0  0  0  0  0  0  0  0
   58.2600  -37.1290   33.2100 O   0  0  0  0  0  0  0  0  0  0  0  0
   56.3760  -34.9680   38.7910 N   0  0  0  0  0  0  0  0  0  0  0  0
   56.6610  -33.8550   37.9030 C   0  0  2  0  0  0  0  0  0  0  0  0
   55.4550  -32.9280   37.8050 C   0  0  0  0  0  0  0  0  0  0  0  0
   55.5950  -31.7080   37.8030 O   0  0  0  0  0  0  0  0  0  0  0  0
   57.0510  -34.3730   36.5270 C   0  0  0  0  0  0  0  0  0  0  0  0
   57.4670  -33.2820   35.5450 C   0  0  0  0  0  0  0  0  0  0  0  0
   58.2870  -33.8220   34.3830 C   0  0  0  0  0  0  0  0  0  0  0  0
   57.6980  -34.3320   33.4010 O   0  0  0  0  0  0  0  0  0  0  0  0
   59.5320  -33.7420   34.4700 O   0  0  0  0  0  0  0  0  0  0  0  0
   55.3460  -31.0660   41.2390 N   0  0  0  0  0  0  0  0  0  0  0  0
   56.4860  -30.1630   41.3790 C   0  0  2  0  0  0  0  0  0  0  0  0
   56.2930  -28.8470   40.6460 C   0  0  0  0  0  0  0  0  0  0  0  0
   56.8600  -27.8260   41.0120 O   0  0  0  0  0  0  0  0  0  0  0  0
   57.7470  -30.8150   40.8340 C   0  0  0  0  0  0  0  0  0  0  0  0
   58.3550  -31.8410   41.7930 C   0  0  0  0  0  0  0  0  0  0  0  0
   58.4610  -31.6150   43.0230 O   0  0  0  0  0  0  0  0  0  0  0  0
   58.7880  -32.9770   41.2250 N   0  0  0  0  0  0  0  0  0  0  0  0
   55.4960  -28.8960   39.5880 N   0  0  0  0  0  0  0  0  0  0  0  0
   55.2640  -27.7500   38.7010 C   0  0  2  0  0  0  0  0  0  0  0  0
   53.9660  -27.0520   39.0350 C   0  0  0  0  0  0  0  0  0  0  0  0
   53.9390  -25.8440   39.2330 O   0  0  0  0  0  0  0  0  0  0  0  0
   55.2960  -28.1680   37.2270 C   0  0  0  0  0  0  0  0  0  0  0  0
   56.7060  -28.4360   36.6660 C   0  0  0  0  0  0  0  0  0  0  0  0
   56.6490  -29.1650   35.3460 C   0  0  0  0  0  0  0  0  0  0  0  0
   57.4880  -27.1510   36.5000 C   0  0  0  0  0  0  0  0  0  0  0  0
   61.7350  -41.3410   24.8610 N   0  0  0  0  0  0  0  0  0  0  0  0
   62.7410  -40.3360   25.1390 C   0  0  2  0  0  0  0  0  0  0  0  0
   62.9640  -39.5330   23.8610 C   0  0  0  0  0  0  0  0  0  0  0  0
   63.2690  -40.0980   22.8180 O   0  0  0  0  0  0  0  0  0  0  0  0
   64.0250  -41.0620   25.5650 C   0  0  0  0  0  0  0  0  0  0  0  0
   65.0320  -40.2630   26.3520 C   0  0  0  0  0  0  0  0  0  0  0  0
   65.1000  -40.1220   27.7230 C   0  0  0  0  0  0  0  0  0  0  0  0
   66.1460  -39.5320   25.8190 C   0  0  0  0  0  0  0  0  0  0  0  0
   66.1840  -39.3370   28.0660 N   0  0  0  0  0  0  0  0  0  0  0  0
   66.8390  -38.9610   26.9180 C   0  0  0  0  0  0  0  0  0  0  0  0
   66.6230  -39.2970   24.5210 C   0  0  0  0  0  0  0  0  0  0  0  0
   67.9820  -38.1710   26.7500 C   0  0  0  0  0  0  0  0  0  0  0  0
   67.7520  -38.5130   24.3560 C   0  0  0  0  0  0  0  0  0  0  0  0
   68.4190  -37.9560   25.4650 C   0  0  0  0  0  0  0  0  0  0  0  0
   65.9590  -35.6930   25.4920 N   0  0  0  0  0  0  0  0  0  0  0  0
   66.0550  -35.6680   26.9360 C   0  0  0  0  0  0  0  0  0  0  0  0
   64.7690  -35.9000   27.7070 C   0  0  0  0  0  0  0  0  0  0  0  0
   64.8210  -36.2660   28.8800 O   0  0  0  0  0  0  0  0  0  0  0  0
   63.6150  -35.6980   27.0810 N   0  0  0  0  0  0  0  0  0  0  0  0
   62.3600  -35.7200   27.8350 C   0  0  2  0  0  0  0  0  0  0  0  0
   61.4000  -36.8630   27.4810 C   0  0  0  0  0  0  0  0  0  0  0  0
   61.3030  -37.2780   26.3330 O   0  0  0  0  0  0  0  0  0  0  0  0
   61.6600  -34.3750   27.6850 C   0  0  0  0  0  0  0  0  0  0  0  0
   62.5790  -33.2110   28.0500 C   0  0  0  0  0  0  0  0  0  0  0  0
   61.8590  -31.8800   27.8970 C   0  0  0  0  0  0  0  0  0  0  0  0
   63.0920  -33.3990   29.4690 C   0  0  0  0  0  0  0  0  0  0  0  0
   60.7360  -37.3990   28.4950 N   0  0  0  0  0  0  0  0  0  0  0  0
   59.6680  -38.3530   28.2860 C   0  0  2  0  0  0  0  0  0  0  0  0
   58.3520  -37.6570   28.3900 C   0  0  0  0  0  0  0  0  0  0  0  0
   57.3130  -38.2890   28.3040 O   0  0  0  0  0  0  0  0  0  0  0  0
   59.7160  -39.4620   29.3210 C   0  0  0  0  0  0  0  0  0  0  0  0
   60.6630  -40.4600   28.9570 O   0  0  0  0  0  0  0  0  0  0  0  0
   58.3970  -36.3540   28.6130 N   0  0  0  0  0  0  0  0  0  0  0  0
   57.1770  -35.5470   28.6960 C   0  0  2  0  0  0  0  0  0  0  0  0
   56.8510  -34.8340   27.3590 C   0  0  0  0  0  0  0  0  0  0  0  0
   57.6710  -34.8080   26.4480 O   0  0  0  0  0  0  0  0  0  0  0  0
   57.3460  -34.5110   29.8120 C   0  0  0  0  0  0  0  0  0  0  0  0
   58.6310  -33.9040   29.7330 O   0  0  0  0  0  0  0  0  0  0  0  0
  2  1  1  6
  3  2  1  0
  4  3  2  0
  5  2  1  0
  6  5  1  0
  7  6  2  0
  8  6  1  0
  9  7  1  0
 10  8  2  0
 11  9  2  0
 11 10  1  0
 12 11  1  0
 14 13  1  1
 15 14  1  0
 16 15  2  0
 17 14  1  0
 18 17  1  0
 19 18  2  0
 20 18  1  0
 21 15  1  0
 22 21  1  0
 23 22  1  0
 24 23  2  0
 25 23  1  0
 26 25  1  0
 27 26  1  0
 28 27  2  0
 29 27  1  0
 30 29  1  0
 31 30  1  0
 32 31  2  0
 30 33  1  6
 34 33  1  0
 35 31  1  0
 36 35  1  0
 37 36  1  0
 38 37  2  0
 36 39  1  1
 40 39  1  0
 41 37  1  0
 42 41  1  0
 43 42  1  0
 44 43  2  0
 42 45  1  1
 47 46  1  1
 48 47  1  0
 49 48  2  0
 50 47  1  0
 51 50  1  0
 53 52  1  6
 54 53  1  0
 55 54  2  0
 56 53  1  0
 57 56  1  0
 58 57  2  0
 59 57  1  0
 60 58  1  0
 61 60  1  0
 61 59  2  0
 62 59  1  0
 63 61  1  0
 64 62  2  0
 65 63  2  0
 65 64  1  0
 67 66  1  6
 68 67  1  0
 69 68  2  0
 70 67  1  0
 71 70  1  0
 72 71  2  0
 73 71  1  0
 74 72  1  0
 75 73  2  0
 76 75  1  0
 76 74  2  0
 77 76  1  0
 79 78  1  1
 80 79  1  0
 81 80  2  0
 82 79  1  0
 83 82  1  0
 84 83  1  0
 85 83  2  0
 86 84  2  0
 87 86  1  0
 87 85  1  0
 89 88  1  1
 90 89  1  0
 91 90  2  0
 92 89  1  0
 93 92  1  0
 95 94  1  1
 96 95  1  0
 97 96  2  0
 98 95  1  0
 99 98  1  0
100 99  1  0
101100  2  0
102100  1  0
104103  1  6
105104  1  0
106105  2  0
107104  1  0
108107  1  0
109108  2  0
110108  1  0
111105  1  0
112111  1  0
113112  1  0
114113  2  0
112115  1  6
116115  1  0
117116  1  0
118116  1  0
120119  1  6
121120  1  0
122121  2  0
123120  1  0
124123  1  0
125124  2  0
126124  1  0
127125  1  0
128126  2  0
128127  1  0
129126  1  0
130128  1  0
131129  2  0
132131  1  0
132130  2  0
134133  1  0
135134  1  0
136135  2  0
137135  1  0
138137  1  0
139138  1  0
140139  2  0
138141  1  6
142141  1  0
143142  1  0
144142  1  0
145139  1  0
146145  1  0
147146  1  0
148147  2  0
146149  1  1
150149  1  0
151147  1  0
152151  1  0
153152  1  0
154153  2  0
152155  1  1
156155  1  0
M  END
$$$$
