
     RDKit          3D

140138  0  0  0  0  0  0  0  0999 V2000
   -2.1420    3.3980   22.8480 N   0  0  0  0  0  0  0  0  0  0  0  0
   -2.5350    4.6940   23.3350 C   0  0  2  0  0  0  0  0  0  0  0  0
   -4.0430    4.7230   23.4880 C   0  0  0  0  0  0  0  0  0  0  0  0
   -4.8440    4.6330   22.5610 O   0  0  0  0  0  0  0  0  0  0  0  0
   -2.0810    5.8040   22.4010 C   0  0  2  0  0  0  0  0  0  0  0  0
   -0.6760    5.6130   22.1540 O   0  0  0  0  0  0  0  0  0  0  0  0
   -2.2790    7.1190   22.9720 C   0  0  0  0  0  0  0  0  0  0  0  0
   -4.4450    4.8190   24.7120 N   0  0  0  0  0  0  0  0  0  0  0  0
   -5.8380    4.9460   25.0710 C   0  0  2  0  0  0  0  0  0  0  0  0
   -6.2330    6.4070   25.0820 C   0  0  0  0  0  0  0  0  0  0  0  0
   -5.4180    7.2580   25.4580 O   0  0  0  0  0  0  0  0  0  0  0  0
   -6.0560    4.4220   26.4760 C   0  0  0  0  0  0  0  0  0  0  0  0
   -5.6840    2.9520   26.5900 C   0  0  0  0  0  0  0  0  0  0  0  0
   -6.1480    2.6070   28.0030 C   0  0  0  0  0  0  0  0  0  0  0  0
   -6.3950    2.0970   25.5280 C   0  0  0  0  0  0  0  0  0  0  0  0
   -7.4450    6.6820   24.6380 N   0  0  0  0  0  0  0  0  0  0  0  0
   -8.0370    8.0650   24.7390 C   0  0  2  0  0  0  0  0  0  0  0  0
   -9.0460    8.1370   25.9030 C   0  0  0  0  0  0  0  0  0  0  0  0
   -9.3900    7.0950   26.5400 O   0  0  0  0  0  0  0  0  0  0  0  0
   -8.6110    8.5630   23.4120 C   0  0  0  0  0  0  0  0  0  0  0  0
   -9.6750    7.7030   22.8700 C   0  0  0  0  0  0  0  0  0  0  0  0
   -9.3610    6.5730   22.0990 C   0  0  0  0  0  0  0  0  0  0  0  0
  -10.9930    7.9580   23.1610 C   0  0  0  0  0  0  0  0  0  0  0  0
  -10.3550    5.7840   21.5770 C   0  0  0  0  0  0  0  0  0  0  0  0
  -12.0070    7.1400   22.6870 C   0  0  0  0  0  0  0  0  0  0  0  0
  -11.6870    6.0270   21.8590 C   0  0  0  0  0  0  0  0  0  0  0  0
   -9.4250    9.3500   26.2490 N   0  0  0  0  0  0  0  0  0  0  0  0
  -10.4360    9.5050   27.3470 C   0  0  2  0  0  0  0  0  0  0  0  0
  -11.7480   10.0300   26.7780 C   0  0  0  0  0  0  0  0  0  0  0  0
  -11.7560   10.5800   25.6750 O   0  0  0  0  0  0  0  0  0  0  0  0
   -9.8900   10.3480   28.4300 C   0  0  0  0  0  0  0  0  0  0  0  0
   -9.3510   12.0030   28.0230 S   0  0  0  0  0  0  0  0  0  0  0  0
  -12.9380   22.2910   31.5130 N   0  0  0  0  0  0  0  0  0  0  0  0
  -12.1260   22.9940   30.5100 C   0  0  2  0  0  0  0  0  0  0  0  0
  -11.0800   22.0530   29.9160 C   0  0  0  0  0  0  0  0  0  0  0  0
  -10.9690   21.9030   28.6800 O   0  0  0  0  0  0  0  0  0  0  0  0
  -11.4800   24.2760   31.0860 C   0  0  0  0  0  0  0  0  0  0  0  0
  -10.4210   24.8750   30.1480 C   0  0  0  0  0  0  0  0  0  0  0  0
  -12.5680   25.2710   31.4050 C   0  0  0  0  0  0  0  0  0  0  0  0
  -10.4040   21.2990   30.7500 N   0  0  0  0  0  0  0  0  0  0  0  0
   -9.4470   20.3250   30.3070 C   0  0  2  0  0  0  0  0  0  0  0  0
  -10.0880   19.2000   29.5100 C   0  0  0  0  0  0  0  0  0  0  0  0
   -9.6530   18.8980   28.3400 O   0  0  0  0  0  0  0  0  0  0  0  0
   -8.6820   19.7150   31.5060 C   0  0  0  0  0  0  0  0  0  0  0  0
   -7.7210   18.6870   31.1290 C   0  0  0  0  0  0  0  0  0  0  0  0
   -6.4640   18.8740   30.5890 C   0  0  0  0  0  0  0  0  0  0  0  0
   -7.9270   17.2880   31.1640 C   0  0  0  0  0  0  0  0  0  0  0  0
   -5.8580   17.6330   30.3890 N   0  0  0  0  0  0  0  0  0  0  0  0
   -6.7530   16.6690   30.6640 C   0  0  0  0  0  0  0  0  0  0  0  0
   -8.9930   16.4830   31.5820 C   0  0  0  0  0  0  0  0  0  0  0  0
   -6.6030   15.3010   30.5910 C   0  0  0  0  0  0  0  0  0  0  0  0
   -8.8550   15.1330   31.5080 C   0  0  0  0  0  0  0  0  0  0  0  0
   -7.6650   14.5510   31.0150 C   0  0  0  0  0  0  0  0  0  0  0  0
  -11.1290   18.5760   30.0880 N   0  0  0  0  0  0  0  0  0  0  0  0
  -11.7490   17.3760   29.5090 C   0  0  2  0  0  0  0  0  0  0  0  0
  -12.4930   17.6160   28.2060 C   0  0  0  0  0  0  0  0  0  0  0  0
  -12.4750   16.7460   27.3720 O   0  0  0  0  0  0  0  0  0  0  0  0
  -12.6840   16.7290   30.4700 C   0  0  0  0  0  0  0  0  0  0  0  0
  -11.4400   19.3530   25.8780 N   0  0  0  0  0  0  0  0  0  0  0  0
  -10.3480   19.4150   24.9000 C   0  0  2  0  0  0  0  0  0  0  0  0
   -9.3610   18.2340   24.9520 C   0  0  0  0  0  0  0  0  0  0  0  0
   -8.6910   17.9920   23.9590 O   0  0  0  0  0  0  0  0  0  0  0  0
   -9.6370   20.7840   24.8870 C   0  0  0  0  0  0  0  0  0  0  0  0
  -10.5020   21.9110   24.4060 C   0  0  0  0  0  0  0  0  0  0  0  0
  -10.7160   22.2000   23.0700 N   0  0  0  0  0  0  0  0  0  0  0  0
  -11.2440   22.8170   25.1070 C   0  0  0  0  0  0  0  0  0  0  0  0
  -11.5300   23.2330   22.9660 C   0  0  0  0  0  0  0  0  0  0  0  0
  -11.8540   23.6320   24.1960 N   0  0  0  0  0  0  0  0  0  0  0  0
   -9.2740   17.5150   26.0520 N   0  0  0  0  0  0  0  0  0  0  0  0
   -8.4650   16.3060   26.1470 C   0  0  2  0  0  0  0  0  0  0  0  0
   -9.2670   15.0270   25.7150 C   0  0  0  0  0  0  0  0  0  0  0  0
   -8.6520   14.0450   25.3020 O   0  0  0  0  0  0  0  0  0  0  0  0
   -7.9860   16.1060   27.6080 C   0  0  0  0  0  0  0  0  0  0  0  0
  -10.5750   15.0060   25.9480 N   0  0  0  0  0  0  0  0  0  0  0  0
  -11.3890   13.8120   25.9060 C   0  0  2  0  0  0  0  0  0  0  0  0
  -12.5490   14.0070   24.9270 C   0  0  0  0  0  0  0  0  0  0  0  0
  -13.0920   15.0930   24.7930 O   0  0  0  0  0  0  0  0  0  0  0  0
  -11.9930   13.5370   27.2760 C   0  0  0  0  0  0  0  0  0  0  0  0
  -10.7950   13.3770   28.6480 S   0  0  0  0  0  0  0  0  0  0  0  0
   -0.8970    5.8780   31.7460 N   0  0  0  0  0  0  0  0  0  0  0  0
   -1.4970    6.8720   30.8000 C   0  0  2  0  0  0  0  0  0  0  0  0
   -2.4320    7.8210   31.5270 C   0  0  0  0  0  0  0  0  0  0  0  0
   -2.4580    9.0290   31.2530 O   0  0  0  0  0  0  0  0  0  0  0  0
   -2.2020    6.1700   29.6330 C   0  0  0  0  0  0  0  0  0  0  0  0
   -1.2470    5.3310   28.8160 C   0  0  0  0  0  0  0  0  0  0  0  0
   -1.9220    4.7350   27.6040 C   0  0  0  0  0  0  0  0  0  0  0  0
   -2.7360    5.4190   26.8940 O   0  0  0  0  0  0  0  0  0  0  0  0
   -1.6070    3.5250   27.3380 N   0  0  0  0  0  0  0  0  0  0  0  0
   -3.1260    7.3360   32.5790 N   0  0  0  0  0  0  0  0  0  0  0  0
   -4.0250    8.2020   33.3630 C   0  0  2  0  0  0  0  0  0  0  0  0
   -3.2060    9.1980   34.1530 C   0  0  0  0  0  0  0  0  0  0  0  0
   -3.5360   10.3840   34.2120 O   0  0  0  0  0  0  0  0  0  0  0  0
   -4.9490    7.4240   34.2790 C   0  0  0  0  0  0  0  0  0  0  0  0
   -5.7800    8.2920   35.2380 C   0  0  0  0  0  0  0  0  0  0  0  0
   -7.1980    7.4420   35.9340 S   0  0  0  0  0  0  0  0  0  0  0  0
   -8.0950    8.8460   36.5410 C   0  0  0  0  0  0  0  0  0  0  0  0
   -0.2550   10.3650   33.1970 N   0  0  0  0  0  0  0  0  0  0  0  0
    0.1600   11.4430   32.3330 C   0  0  2  0  0  0  0  0  0  0  0  0
   -0.9850   12.4560   32.1520 C   0  0  0  0  0  0  0  0  0  0  0  0
   -0.7130   13.6730   32.0930 O   0  0  0  0  0  0  0  0  0  0  0  0
    0.4330   10.8670   30.9410 C   0  0  0  0  0  0  0  0  0  0  0  0
    1.7230   10.1410   30.8350 C   0  0  0  0  0  0  0  0  0  0  0  0
    2.0060    9.8480   29.3470 C   0  0  0  0  0  0  0  0  0  0  0  0
    2.2610   10.7730   28.5640 O   0  0  0  0  0  0  0  0  0  0  0  0
    1.7520    8.7280   29.0220 O   0  0  0  0  0  0  0  0  0  0  0  0
   -2.2460   12.0060   32.0040 N   0  0  0  0  0  0  0  0  0  0  0  0
   -3.3240   12.9510   31.7350 C   0  0  2  0  0  0  0  0  0  0  0  0
   -3.6280   13.8310   32.9480 C   0  0  0  0  0  0  0  0  0  0  0  0
   -3.9040   15.0120   32.8410 O   0  0  0  0  0  0  0  0  0  0  0  0
   -4.5620   12.1850   31.3570 C   0  0  0  0  0  0  0  0  0  0  0  0
   -4.5240   11.6570   29.8740 C   0  0  0  0  0  0  0  0  0  0  0  0
   -3.7020   12.1350   29.1010 O   0  0  0  0  0  0  0  0  0  0  0  0
   -5.3440   10.7780   29.5520 O   0  0  0  0  0  0  0  0  0  0  0  0
   -1.1370   16.4700   33.1420 N   0  0  0  0  0  0  0  0  0  0  0  0
   -1.5070   17.4450   32.1490 C   0  0  2  0  0  0  0  0  0  0  0  0
   -2.6210   18.3740   32.6500 C   0  0  0  0  0  0  0  0  0  0  0  0
   -2.5110   19.5970   32.5570 O   0  0  0  0  0  0  0  0  0  0  0  0
   -1.9530   16.7520   30.8540 C   0  0  0  0  0  0  0  0  0  0  0  0
   -2.3320   17.7850   30.0280 O   0  0  0  0  0  0  0  0  0  0  0  0
   -2.1070   22.4260   33.4610 N   0  0  0  0  0  0  0  0  0  0  0  0
   -2.9140   23.4330   32.8580 C   0  0  2  0  0  0  0  0  0  0  0  0
   -3.7930   24.2260   33.7930 C   0  0  0  0  0  0  0  0  0  0  0  0
   -3.9500   25.3840   33.5670 O   0  0  0  0  0  0  0  0  0  0  0  0
   -3.8310   22.7520   31.7830 C   0  0  0  0  0  0  0  0  0  0  0  0
   -4.8130   23.6510   31.1330 C   0  0  0  0  0  0  0  0  0  0  0  0
   -5.5980   22.9120   30.0560 C   0  0  0  0  0  0  0  0  0  0  0  0
   -4.9970   22.2130   29.3100 O   0  0  0  0  0  0  0  0  0  0  0  0
   -6.9090   23.0580   30.0110 N   0  0  0  0  0  0  0  0  0  0  0  0
  -11.6560    5.7920   30.2110 N   0  0  0  0  0  0  0  0  0  0  0  0
  -10.5280    5.4710   29.3660 C   0  0  2  0  0  0  0  0  0  0  0  0
  -10.9910    4.4700   28.3690 C   0  0  0  0  0  0  0  0  0  0  0  0
  -11.6630    3.5260   28.7220 O   0  0  0  0  0  0  0  0  0  0  0  0
   -9.2470    5.0020   30.1400 C   0  0  0  0  0  0  0  0  0  0  0  0
   -8.5040    6.2160   30.6100 C   0  0  0  0  0  0  0  0  0  0  0  0
   -7.6600    6.8930   29.7410 C   0  0  0  0  0  0  0  0  0  0  0  0
   -8.7390    6.7550   31.8630 C   0  0  0  0  0  0  0  0  0  0  0  0
   -7.0750    8.0640   30.1000 C   0  0  0  0  0  0  0  0  0  0  0  0
   -8.1300    7.9420   32.2560 C   0  0  0  0  0  0  0  0  0  0  0  0
   -7.3110    8.6040   31.3730 C   0  0  0  0  0  0  0  0  0  0  0  0
   -6.7450    9.7930   31.6580 O   0  0  0  0  0  0  0  0  0  0  0  0
  2  1  1  6
  3  2  1  0
  4  3  2  0
  5  2  1  0
  6  5  1  0
  5  7  1  1
  8  3  1  0
  9  8  1  0
 10  9  1  0
 11 10  2  0
  9 12  1  1
 13 12  1  0
 14 13  1  0
 15 13  1  0
 16 10  1  0
 17 16  1  0
 18 17  1  0
 19 18  2  0
 17 20  1  6
 21 20  1  0
 22 21  2  0
 23 21  1  0
 24 22  1  0
 25 23  2  0
 26 25  1  0
 26 24  2  0
 27 18  1  0
 28 27  1  0
 29 28  1  0
 30 29  2  0
 28 31  1  1
 32 31  1  0
 34 33  1  1
 35 34  1  0
 36 35  2  0
 37 34  1  0
 38 37  1  0
 39 37  1  0
 40 35  1  0
 41 40  1  0
 42 41  1  0
 43 42  2  0
 41 44  1  1
 45 44  1  0
 46 45  2  0
 47 45  1  0
 48 46  1  0
 49 48  1  0
 49 47  2  0
 50 47  1  0
 51 49  1  0
 52 50  2  0
 53 52  1  0
 53 51  2  0
 54 42  1  0
 55 54  1  0
 56 55  1  0
 57 56  2  0
 55 58  1  1
 60 59  1  1
 61 60  1  0
 62 61  2  0
 63 60  1  0
 64 63  1  0
 65 64  1  0
 66 64  2  0
 67 65  2  0
 68 67  1  0
 68 66  1  0
 69 61  1  0
 70 69  1  0
 71 70  1  0
 72 71  2  0
 70 73  1  1
 74 71  1  0
 75 74  1  0
 76 75  1  0
 77 76  2  0
 75 78  1  1
 79 78  1  0
 79 32  1  0
 81 80  1  1
 82 81  1  0
 83 82  2  0
 84 81  1  0
 85 84  1  0
 86 85  1  0
 87 86  2  0
 88 86  1  0
 89 82  1  0
 90 89  1  0
 91 90  1  0
 92 91  2  0
 90 93  1  1
 94 93  1  0
 95 94  1  0
 96 95  1  0
 98 97  1  1
 99 98  1  0
100 99  2  0
101 98  1  0
102101  1  0
103102  1  0
104103  2  0
105103  1  0
106 99  1  0
107106  1  0
108107  1  0
109108  2  0
107110  1  1
111110  1  0
112111  2  0
113111  1  0
115114  1  1
116115  1  0
117116  2  0
118115  1  0
119118  1  0
121120  1  1
122121  1  0
123122  2  0
124121  1  0
125124  1  0
126125  1  0
127126  2  0
128126  1  0
130129  1  1
131130  1  0
132131  2  0
133130  1  0
134133  1  0
135134  2  0
136134  1  0
137135  1  0
138136  2  0
139138  1  0
139137  2  0
140139  1  0
M  END
$$$$
