
     RDKit          3D

 81 79  0  0  0  0  0  0  0  0999 V2000
   10.2280   -0.5320   34.5480 N   0  0  0  0  0  0  0  0  0  0  0  0
    9.7130   -0.1530   35.8560 C   0  0  2  0  0  0  0  0  0  0  0  0
    9.9820   -1.2200   36.9150 C   0  0  0  0  0  0  0  0  0  0  0  0
    9.5970   -2.3780   36.7640 O   0  0  0  0  0  0  0  0  0  0  0  0
    8.2190    0.0980   35.7570 C   0  0  0  0  0  0  0  0  0  0  0  0
   10.6630   -0.8140   37.9830 N   0  0  0  0  0  0  0  0  0  0  0  0
   10.9220   -1.6910   39.1190 C   0  0  2  0  0  0  0  0  0  0  0  0
   10.7360   -0.9480   40.4440 C   0  0  0  0  0  0  0  0  0  0  0  0
   11.0450    0.2400   40.5410 O   0  0  0  0  0  0  0  0  0  0  0  0
   12.3380   -2.2660   39.0370 C   0  0  0  0  0  0  0  0  0  0  0  0
   13.3080   -1.2380   39.1450 O   0  0  0  0  0  0  0  0  0  0  0  0
   10.2110   -1.6310   41.4560 N   0  0  0  0  0  0  0  0  0  0  0  0
   10.1690   -1.0530   42.7950 C   0  0  2  0  0  0  0  0  0  0  0  0
   10.5960   -2.1080   43.8170 C   0  0  0  0  0  0  0  0  0  0  0  0
   10.1810   -3.2650   43.7390 O   0  0  0  0  0  0  0  0  0  0  0  0
    8.7640   -0.5100   43.1420 C   0  0  0  0  0  0  0  0  0  0  0  0
    7.7290   -1.6240   43.1030 C   0  0  0  0  0  0  0  0  0  0  0  0
    8.7770    0.1620   44.5090 C   0  0  0  0  0  0  0  0  0  0  0  0
   11.4460   -1.7110   44.7580 N   0  0  0  0  0  0  0  0  0  0  0  0
   12.0810   -2.6630   45.6620 C   0  0  2  0  0  0  0  0  0  0  0  0
   12.4230   -2.0160   46.9950 C   0  0  0  0  0  0  0  0  0  0  0  0
   12.8760   -0.8740   47.0300 O   0  0  0  0  0  0  0  0  0  0  0  0
   13.3650   -3.1990   45.0340 C   0  0  0  0  0  0  0  0  0  0  0  0
   13.2710   -4.6530   44.6030 C   0  0  0  0  0  0  0  0  0  0  0  0
   14.5430   -5.1560   43.9460 C   0  0  0  0  0  0  0  0  0  0  0  0
   15.6190   -4.5850   44.1300 O   0  0  0  0  0  0  0  0  0  0  0  0
   14.4280   -6.2400   43.1860 N   0  0  0  0  0  0  0  0  0  0  0  0
   15.2350  -12.5170   55.4940 N   0  0  0  0  0  0  0  0  0  0  0  0
   15.3420  -13.3750   54.3180 C   0  0  2  0  0  0  0  0  0  0  0  0
   13.9560  -13.8020   53.8530 C   0  0  0  0  0  0  0  0  0  0  0  0
   13.3340  -14.6800   54.4510 O   0  0  0  0  0  0  0  0  0  0  0  0
   16.2060  -14.5980   54.6340 C   0  0  0  0  0  0  0  0  0  0  0  0
   16.5310  -15.5670   53.4940 C   0  0  0  0  0  0  0  0  0  0  0  0
   17.2410  -14.8630   52.3500 C   0  0  0  0  0  0  0  0  0  0  0  0
   17.3970  -16.7040   54.0200 C   0  0  0  0  0  0  0  0  0  0  0  0
   13.4800  -13.1780   52.7800 N   0  0  0  0  0  0  0  0  0  0  0  0
   12.1430  -13.4280   52.2750 C   0  0  0  0  0  0  0  0  0  0  0  0
   11.1380  -12.4320   52.8240 C   0  0  0  0  0  0  0  0  0  0  0  0
    9.9280  -12.6140   52.6880 O   0  0  0  0  0  0  0  0  0  0  0  0
   11.6420  -11.3710   53.4460 N   0  0  0  0  0  0  0  0  0  0  0  0
   10.7900  -10.3670   54.0650 C   0  0  2  0  0  0  0  0  0  0  0  0
   10.1290   -9.4720   53.0200 C   0  0  0  0  0  0  0  0  0  0  0  0
    9.0590   -8.9080   53.2570 O   0  0  0  0  0  0  0  0  0  0  0  0
   11.6010   -9.5290   55.0370 C   0  0  0  0  0  0  0  0  0  0  0  0
   10.7640   -9.3520   51.8590 N   0  0  0  0  0  0  0  0  0  0  0  0
   10.2480   -8.5040   50.7920 C   0  0  2  0  0  0  0  0  0  0  0  0
    9.5710   -9.3340   49.7100 C   0  0  0  0  0  0  0  0  0  0  0  0
   10.1150  -10.3350   49.2550 O   0  0  0  0  0  0  0  0  0  0  0  0
   11.3750   -7.6760   50.1540 C   0  0  0  0  0  0  0  0  0  0  0  0
   10.8320   -6.8130   49.0180 C   0  0  0  0  0  0  0  0  0  0  0  0
   12.0630   -6.8200   51.2110 C   0  0  0  0  0  0  0  0  0  0  0  0
    8.3660   -8.9280   49.3250 N   0  0  0  0  0  0  0  0  0  0  0  0
    7.6790   -9.5370   48.1930 C   0  0  2  0  0  0  0  0  0  0  0  0
    7.4050   -8.4900   47.1220 C   0  0  0  0  0  0  0  0  0  0  0  0
    6.5430   -7.6300   47.2970 O   0  0  0  0  0  0  0  0  0  0  0  0
    6.3780  -10.1900   48.6580 C   0  0  0  0  0  0  0  0  0  0  0  0
    6.5870  -11.4030   49.5590 C   0  0  0  0  0  0  0  0  0  0  0  0
    5.3190  -12.2000   49.7750 C   0  0  0  0  0  0  0  0  0  0  0  0
    4.5270  -12.3880   48.8520 O   0  0  0  0  0  0  0  0  0  0  0  0
    5.1230  -12.6820   50.9990 N   0  0  0  0  0  0  0  0  0  0  0  0
    8.1510   -8.5570   46.0230 N   0  0  0  0  0  0  0  0  0  0  0  0
    8.1110   -7.5110   44.9990 C   0  0  2  0  0  0  0  0  0  0  0  0
    7.3660   -7.9550   43.7280 C   0  0  0  0  0  0  0  0  0  0  0  0
    7.2460   -9.1520   43.4670 O   0  0  0  0  0  0  0  0  0  0  0  0
    9.5340   -7.0850   44.6220 C   0  0  0  0  0  0  0  0  0  0  0  0
   10.0990   -6.2310   45.6050 O   0  0  0  0  0  0  0  0  0  0  0  0
    6.8430   -6.9880   42.9650 N   0  0  0  0  0  0  0  0  0  0  0  0
    6.3060   -7.2380   41.6250 C   0  0  2  0  0  0  0  0  0  0  0  0
    6.8000   -6.0680   40.7660 C   0  0  0  0  0  0  0  0  0  0  0  0
    7.9010   -5.5730   40.9970 O   0  0  0  0  0  0  0  0  0  0  0  0
    4.7750   -7.3190   41.6590 C   0  0  0  0  0  0  0  0  0  0  0  0
    4.1110   -6.0180   42.0460 C   0  0  0  0  0  0  0  0  0  0  0  0
    4.1040   -5.0820   41.2230 O   0  0  0  0  0  0  0  0  0  0  0  0
    3.5810   -5.9400   43.1730 O   0  0  0  0  0  0  0  0  0  0  0  0
    5.9930   -5.5470   39.8500 N   0  0  0  0  0  0  0  0  0  0  0  0
    6.5040   -4.4840   38.9870 C   0  0  2  0  0  0  0  0  0  0  0  0
    6.0920   -3.0550   39.3440 C   0  0  0  0  0  0  0  0  0  0  0  0
    6.6910   -2.1020   38.8530 O   0  0  0  0  0  0  0  0  0  0  0  0
    6.0410   -4.7120   37.5400 C   0  0  2  0  0  0  0  0  0  0  0  0
    4.6420   -4.4260   37.4380 O   0  0  0  0  0  0  0  0  0  0  0  0
    6.3290   -6.1280   37.0740 C   0  0  0  0  0  0  0  0  0  0  0  0
  2  1  1  0
  3  2  1  0
  4  3  2  0
  2  5  1  6
  6  3  1  0
  7  6  1  0
  8  7  1  0
  9  8  2  0
  7 10  1  6
 11 10  1  0
 12  8  1  0
 13 12  1  6
 14 13  1  0
 15 14  2  0
 16 13  1  0
 17 16  1  0
 18 16  1  0
 19 14  1  0
 20 19  1  0
 21 20  1  0
 22 21  2  0
 20 23  1  6
 24 23  1  0
 25 24  1  0
 26 25  2  0
 27 25  1  0
 29 28  1  1
 30 29  1  0
 31 30  2  0
 32 29  1  0
 33 32  1  0
 34 33  1  0
 35 33  1  0
 36 30  1  0
 37 36  1  0
 38 37  1  0
 39 38  2  0
 40 38  1  0
 41 40  1  0
 42 41  1  0
 43 42  2  0
 41 44  1  1
 45 42  1  0
 46 45  1  1
 47 46  1  0
 48 47  2  0
 49 46  1  0
 50 49  1  0
 51 49  1  0
 52 47  1  0
 53 52  1  0
 54 53  1  0
 55 54  2  0
 53 56  1  1
 57 56  1  0
 58 57  1  0
 59 58  2  0
 60 58  1  0
 61 54  1  0
 62 61  1  0
 63 62  1  0
 64 63  2  0
 62 65  1  6
 66 65  1  0
 67 63  1  0
 68 67  1  0
 69 68  1  0
 70 69  2  0
 68 71  1  1
 72 71  1  0
 73 72  2  0
 74 72  1  0
 75 69  1  0
 76 75  1  1
 77 76  1  0
 78 77  2  0
 79 76  1  0
 80 79  1  0
 79 81  1  1
M  END
$$$$
