
     RDKit          3D

113109  0  0  0  0  0  0  0  0999 V2000
   58.8270  -37.0960    0.0290 N   0  0  0  0  0  0  0  0  0  0  0  0
   58.7940  -37.8140   -1.2510 C   0  0  2  0  0  0  0  0  0  0  0  0
   58.9130  -36.8460   -2.4310 C   0  0  0  0  0  0  0  0  0  0  0  0
   58.1040  -35.9220   -2.5550 O   0  0  0  0  0  0  0  0  0  0  0  0
   57.4140  -38.4850   -1.2390 C   0  0  0  0  0  0  0  0  0  0  0  0
   56.5710  -37.5830   -0.4190 C   0  0  0  0  0  0  0  0  0  0  0  0
   57.4870  -36.9890    0.6350 C   0  0  0  0  0  0  0  0  0  0  0  0
   59.9210  -37.0490   -3.2750 N   0  0  0  0  0  0  0  0  0  0  0  0
   60.1240  -36.2030   -4.4530 C   0  0  2  0  0  0  0  0  0  0  0  0
   59.3810  -36.7540   -5.6710 C   0  0  0  0  0  0  0  0  0  0  0  0
   59.8070  -37.7430   -6.2880 O   0  0  0  0  0  0  0  0  0  0  0  0
   61.6160  -36.0710   -4.8220 C   0  0  0  0  0  0  0  0  0  0  0  0
   61.7620  -35.2200   -6.0550 C   0  0  0  0  0  0  0  0  0  0  0  0
   62.4150  -35.4860   -3.6690 C   0  0  0  0  0  0  0  0  0  0  0  0
   58.2610  -36.1300   -6.0180 N   0  0  0  0  0  0  0  0  0  0  0  0
   57.5190  -36.5970   -7.1790 C   0  0  2  0  0  0  0  0  0  0  0  0
   57.9240  -35.7900   -8.4190 C   0  0  0  0  0  0  0  0  0  0  0  0
   57.4450  -34.6900   -8.6940 O   0  0  0  0  0  0  0  0  0  0  0  0
   55.9880  -36.7530   -6.9140 C   0  0  0  0  0  0  0  0  0  0  0  0
   55.7690  -37.5220   -5.6200 C   0  0  0  0  0  0  0  0  0  0  0  0
   55.2760  -35.4220   -6.8410 C   0  0  0  0  0  0  0  0  0  0  0  0
   58.8840  -36.3640   -9.1280 N   0  0  0  0  0  0  0  0  0  0  0  0
   59.4870  -35.7630  -10.2950 C   0  0  2  0  0  0  0  0  0  0  0  0
   60.2960  -36.8630  -10.9790 C   0  0  0  0  0  0  0  0  0  0  0  0
   60.7110  -37.8280  -10.3340 O   0  0  0  0  0  0  0  0  0  0  0  0
   60.3710  -34.5950   -9.8870 C   0  0  0  0  0  0  0  0  0  0  0  0
   60.9240  -33.9590  -11.0190 O   0  0  0  0  0  0  0  0  0  0  0  0
   61.4000  -21.8120  -15.8840 N   0  0  0  0  0  0  0  0  0  0  0  0
   61.4600  -22.3880  -14.5580 C   0  0  2  0  0  0  0  0  0  0  0  0
   60.2560  -23.2820  -14.3160 C   0  0  0  0  0  0  0  0  0  0  0  0
   60.2190  -24.0490  -13.3400 O   0  0  0  0  0  0  0  0  0  0  0  0
   61.5440  -21.2940  -13.5020 C   0  0  0  0  0  0  0  0  0  0  0  0
   59.2760  -23.1770  -15.2080 N   0  0  0  0  0  0  0  0  0  0  0  0
   58.0850  -24.0130  -15.1400 C   0  0  2  0  0  0  0  0  0  0  0  0
   58.2480  -25.2540  -16.0200 C   0  0  0  0  0  0  0  0  0  0  0  0
   58.8910  -25.2070  -17.0740 O   0  0  0  0  0  0  0  0  0  0  0  0
   56.8480  -23.2080  -15.5220 C   0  0  0  0  0  0  0  0  0  0  0  0
   56.4910  -22.1190  -14.5330 C   0  0  0  0  0  0  0  0  0  0  0  0
   55.7010  -22.7110  -13.3820 C   0  0  0  0  0  0  0  0  0  0  0  0
   56.1150  -22.1520  -12.0210 C   0  0  0  0  0  0  0  0  0  0  0  0
   57.3320  -22.8230  -11.4660 N   0  0  0  0  0  0  0  0  0  0  0  0
   57.6700  -26.3630  -15.5710 N   0  0  0  0  0  0  0  0  0  0  0  0
   57.8970  -27.6660  -16.1890 C   0  0  2  0  0  0  0  0  0  0  0  0
   57.2700  -27.8110  -17.5540 C   0  0  0  0  0  0  0  0  0  0  0  0
   56.1500  -27.3420  -17.7660 O   0  0  0  0  0  0  0  0  0  0  0  0
   57.3160  -28.7610  -15.3080 C   0  0  0  0  0  0  0  0  0  0  0  0
   58.1770  -29.0670  -14.1370 C   0  0  0  0  0  0  0  0  0  0  0  0
   58.5040  -30.2220  -13.8890 O   0  0  0  0  0  0  0  0  0  0  0  0
   58.5710  -28.0350  -13.4100 N   0  0  0  0  0  0  0  0  0  0  0  0
   70.7900  -33.5320  -18.3040 N   0  0  0  0  0  0  0  0  0  0  0  0
   70.7130  -32.4230  -17.3400 C   0  0  2  0  0  0  0  0  0  0  0  0
   72.0710  -31.9940  -16.8140 C   0  0  0  0  0  0  0  0  0  0  0  0
   72.9730  -32.8170  -16.7230 O   0  0  0  0  0  0  0  0  0  0  0  0
   69.8770  -33.0100  -16.2070 C   0  0  0  0  0  0  0  0  0  0  0  0
   69.0770  -34.1090  -16.8490 C   0  0  0  0  0  0  0  0  0  0  0  0
   70.0250  -34.7030  -17.8380 C   0  0  0  0  0  0  0  0  0  0  0  0
   72.2180  -30.7190  -16.4720 N   0  0  0  0  0  0  0  0  0  0  0  0
   73.5100  -30.2120  -16.0040 C   0  0  2  0  0  0  0  0  0  0  0  0
   73.7550  -30.4690  -14.5180 C   0  0  0  0  0  0  0  0  0  0  0  0
   74.8850  -30.3590  -14.0510 O   0  0  0  0  0  0  0  0  0  0  0  0
   73.6390  -28.7220  -16.3090 C   0  0  0  0  0  0  0  0  0  0  0  0
   74.1290  -28.5140  -17.6210 O   0  0  0  0  0  0  0  0  0  0  0  0
   72.6860  -30.8100  -13.7930 N   0  0  0  0  0  0  0  0  0  0  0  0
   72.7260  -31.1570  -12.3760 C   0  0  0  0  0  0  0  0  0  0  0  0
   71.3610  -31.6110  -11.8590 C   0  0  0  0  0  0  0  0  0  0  0  0
   70.3650  -31.5860  -12.5930 O   0  0  0  0  0  0  0  0  0  0  0  0
   71.3160  -32.0210  -10.5910 N   0  0  0  0  0  0  0  0  0  0  0  0
   70.0910  -32.4830   -9.9520 C   0  0  0  0  0  0  0  0  0  0  0  0
   70.2720  -33.7350   -9.0860 C   0  0  0  0  0  0  0  0  0  0  0  0
   71.3420  -34.3480   -9.0630 O   0  0  0  0  0  0  0  0  0  0  0  0
   69.2210  -34.1160   -8.3660 N   0  0  0  0  0  0  0  0  0  0  0  0
   69.2030  -35.3790   -7.6460 C   0  0  2  0  0  0  0  0  0  0  0  0
   68.8050  -36.5380   -8.5520 C   0  0  0  0  0  0  0  0  0  0  0  0
   68.3430  -36.3340   -9.6750 O   0  0  0  0  0  0  0  0  0  0  0  0
   68.2520  -35.3020   -6.4560 C   0  0  0  0  0  0  0  0  0  0  0  0
   68.7950  -34.4370   -5.3360 C   0  0  0  0  0  0  0  0  0  0  0  0
   70.0380  -34.3520   -5.2050 O   0  0  0  0  0  0  0  0  0  0  0  0
   67.9840  -33.8450   -4.5890 O   0  0  0  0  0  0  0  0  0  0  0  0
   65.8130  -36.9380  -11.1520 N   0  0  0  0  0  0  0  0  0  0  0  0
   65.7220  -36.1540  -12.3710 C   0  0  2  0  0  0  0  0  0  0  0  0
   67.0020  -36.2580  -13.1970 C   0  0  0  0  0  0  0  0  0  0  0  0
   67.0770  -35.7780  -14.3120 O   0  0  0  0  0  0  0  0  0  0  0  0
   65.3660  -34.6900  -12.0570 C   0  0  2  0  0  0  0  0  0  0  0  0
   66.4520  -34.0520  -11.2220 C   0  0  0  0  0  0  0  0  0  0  0  0
   64.0590  -34.5940  -11.2630 C   0  0  0  0  0  0  0  0  0  0  0  0
   66.0860  -32.6680  -10.7930 C   0  0  0  0  0  0  0  0  0  0  0  0
   62.7800  -29.3880  -18.7690 N   0  0  0  0  0  0  0  0  0  0  0  0
   63.0110  -27.9480  -18.5510 C   0  0  2  0  0  0  0  0  0  0  0  0
   63.7860  -27.4290  -19.7560 C   0  0  0  0  0  0  0  0  0  0  0  0
   64.5610  -28.1700  -20.3540 O   0  0  0  0  0  0  0  0  0  0  0  0
   63.7820  -27.5960  -17.2100 C   0  0  2  0  0  0  0  0  0  0  0  0
   64.8530  -28.5220  -16.9860 O   0  0  0  0  0  0  0  0  0  0  0  0
   62.8450  -27.6040  -15.9900 C   0  0  0  0  0  0  0  0  0  0  0  0
   65.1350  -32.3550  -16.8670 N   0  0  0  0  0  0  0  0  0  0  0  0
   64.9790  -31.8850  -15.5040 C   0  0  0  0  0  0  0  0  0  0  0  0
   63.5440  -31.8300  -14.9970 C   0  0  0  0  0  0  0  0  0  0  0  0
   62.6210  -32.3730  -15.6020 O   0  0  0  0  0  0  0  0  0  0  0  0
   63.3550  -31.1740  -13.8570 N   0  0  0  0  0  0  0  0  0  0  0  0
   62.0200  -30.9800  -13.3360 C   0  0  0  0  0  0  0  0  0  0  0  0
   61.9120  -30.4370  -11.9300 C   0  0  0  0  0  0  0  0  0  0  0  0
   62.8500  -30.4860  -11.1500 O   0  0  0  0  0  0  0  0  0  0  0  0
   60.7420  -29.9030  -11.6180 N   0  0  0  0  0  0  0  0  0  0  0  0
   60.3830  -29.5790  -10.2600 C   0  0  0  0  0  0  0  0  0  0  0  0
   59.3330  -30.5860   -9.8420 C   0  0  0  0  0  0  0  0  0  0  0  0
   59.0120  -31.4950  -10.6020 O   0  0  0  0  0  0  0  0  0  0  0  0
   58.7980  -30.4330   -8.6360 N   0  0  0  0  0  0  0  0  0  0  0  0
   57.7250  -31.3000   -8.1650 C   0  0  2  0  0  0  0  0  0  0  0  0
   56.4800  -31.1320   -9.0320 C   0  0  0  0  0  0  0  0  0  0  0  0
   56.2330  -30.0620   -9.5970 O   0  0  0  0  0  0  0  0  0  0  0  0
   57.3980  -30.9880   -6.7070 C   0  0  0  0  0  0  0  0  0  0  0  0
   56.8750  -32.2000   -5.9500 C   0  0  0  0  0  0  0  0  0  0  0  0
   57.6910  -32.9620   -5.3680 O   0  0  0  0  0  0  0  0  0  0  0  0
   55.6410  -32.3900   -5.9380 O   0  0  0  0  0  0  0  0  0  0  0  0
  2  1  1  0
  2  3  1  6
  4  3  2  0
  5  2  1  0
  6  5  1  0
  7  6  1  0
  7  1  1  0
  8  3  1  0
  9  8  1  1
 10  9  1  0
 11 10  2  0
 12  9  1  0
 13 12  1  0
 14 12  1  0
 15 10  1  0
 16 15  1  1
 17 16  1  0
 18 17  2  0
 19 16  1  0
 20 19  1  0
 21 19  1  0
 22 17  1  0
 23 22  1  0
 24 23  1  0
 25 24  2  0
 23 26  1  1
 27 26  1  0
 29 28  1  0
 30 29  1  0
 31 30  2  0
 29 32  1  1
 33 30  1  0
 34 33  1  0
 35 34  1  0
 36 35  2  0
 34 37  1  6
 38 37  1  0
 39 38  1  0
 40 39  1  0
 41 40  1  0
 42 35  1  0
 43 42  1  0
 44 43  1  0
 45 44  2  0
 43 46  1  1
 47 46  1  0
 48 47  2  0
 49 47  1  0
 51 50  1  0
 51 52  1  1
 53 52  2  0
 54 51  1  0
 55 54  1  0
 56 55  1  0
 56 50  1  0
 57 52  1  0
 58 57  1  0
 59 58  1  0
 60 59  2  0
 58 61  1  1
 62 61  1  0
 63 59  1  0
 64 63  1  0
 65 64  1  0
 66 65  2  0
 67 65  1  0
 68 67  1  0
 69 68  1  0
 70 69  2  0
 71 69  1  0
 72 71  1  0
 73 72  1  0
 74 73  2  0
 72 75  1  1
 76 75  1  0
 77 76  2  0
 78 76  1  0
 80 79  1  1
 81 80  1  0
 82 81  2  0
 83 80  1  0
 84 83  1  0
 83 85  1  1
 86 84  1  0
 88 87  1  6
 89 88  1  0
 90 89  2  0
 91 88  1  0
 92 91  1  0
 91 93  1  1
 95 94  1  0
 96 95  1  0
 97 96  2  0
 98 96  1  0
 99 98  1  0
100 99  1  0
101100  2  0
102100  1  0
103102  1  0
104103  1  0
105104  2  0
106104  1  0
107106  1  0
108107  1  0
109108  2  0
107110  1  1
111110  1  0
112111  2  0
113111  1  0
M  END
$$$$
