
     RDKit          3D

116110  0  0  0  0  0  0  0  0999 V2000
   37.3890  -31.4100   27.1120 N   0  0  0  0  0  0  0  0  0  0  0  0
   36.2620  -31.7700   26.2590 C   0  0  2  0  0  0  0  0  0  0  0  0
   36.4530  -31.2430   24.8120 C   0  0  0  0  0  0  0  0  0  0  0  0
   36.2890  -30.0380   24.5760 O   0  0  0  0  0  0  0  0  0  0  0  0
   34.9410  -31.2680   26.8730 C   0  0  0  0  0  0  0  0  0  0  0  0
   33.6910  -31.8970   26.2560 C   0  0  0  0  0  0  0  0  0  0  0  0
   32.5470  -30.8910   26.0940 C   0  0  0  0  0  0  0  0  0  0  0  0
   32.5880  -30.1290   24.7860 C   0  0  0  0  0  0  0  0  0  0  0  0
   32.2930  -31.0010   23.6190 N   0  0  0  0  0  0  0  0  0  0  0  0
   36.7800  -32.1250   23.8280 N   0  0  0  0  0  0  0  0  0  0  0  0
   36.9590  -31.6560   22.4370 C   0  0  2  0  0  0  0  0  0  0  0  0
   35.6380  -31.5930   21.6450 C   0  0  0  0  0  0  0  0  0  0  0  0
   34.5720  -31.5010   22.2610 O   0  0  0  0  0  0  0  0  0  0  0  0
   37.9610  -32.6690   21.8460 C   0  0  0  0  0  0  0  0  0  0  0  0
   38.0480  -33.8180   22.8540 C   0  0  0  0  0  0  0  0  0  0  0  0
   37.0190  -33.5790   23.9240 C   0  0  0  0  0  0  0  0  0  0  0  0
   35.7170  -31.6640   20.3180 N   0  0  0  0  0  0  0  0  0  0  0  0
   34.5210  -31.6600   19.4790 C   0  0  2  0  0  0  0  0  0  0  0  0
   34.4300  -32.8520   18.5200 C   0  0  0  0  0  0  0  0  0  0  0  0
   35.3890  -33.1700   17.8160 O   0  0  0  0  0  0  0  0  0  0  0  0
   34.4130  -30.3570   18.6630 C   0  0  0  0  0  0  0  0  0  0  0  0
   35.6170  -30.2050   17.7450 C   0  0  0  0  0  0  0  0  0  0  0  0
   33.1190  -30.3370   17.8640 C   0  0  0  0  0  0  0  0  0  0  0  0
   31.5260  -34.3380   15.5140 N   0  0  0  0  0  0  0  0  0  0  0  0
   30.2890  -34.3870   14.7280 C   0  0  2  0  0  0  0  0  0  0  0  0
   30.5410  -34.6600   13.2370 C   0  0  0  0  0  0  0  0  0  0  0  0
   31.6640  -34.4950   12.7610 O   0  0  0  0  0  0  0  0  0  0  0  0
   29.5020  -33.0910   14.8920 C   0  0  0  0  0  0  0  0  0  0  0  0
   30.3590  -32.0210   15.2420 O   0  0  0  0  0  0  0  0  0  0  0  0
   12.6990  -33.5420   19.1820 N   0  0  0  0  0  0  0  0  0  0  0  0
   13.5090  -32.8790   18.1470 C   0  0  2  0  0  0  0  0  0  0  0  0
   14.9220  -32.4670   18.6250 C   0  0  0  0  0  0  0  0  0  0  0  0
   15.8840  -32.5710   17.8520 O   0  0  0  0  0  0  0  0  0  0  0  0
   12.7480  -31.7630   17.4110 C   0  0  0  0  0  0  0  0  0  0  0  0
   12.5390  -30.4830   18.1750 C   0  0  0  0  0  0  0  0  0  0  0  0
   13.4760  -29.7870   18.5800 O   0  0  0  0  0  0  0  0  0  0  0  0
   11.2950  -30.0770   18.2760 N   0  0  0  0  0  0  0  0  0  0  0  0
   15.0410  -32.0750   19.9220 N   0  0  0  0  0  0  0  0  0  0  0  0
   16.3020  -31.7200   20.5820 C   0  0  2  0  0  0  0  0  0  0  0  0
   17.2410  -32.9280   20.6110 C   0  0  0  0  0  0  0  0  0  0  0  0
   18.4630  -32.7470   20.5770 O   0  0  0  0  0  0  0  0  0  0  0  0
   16.0440  -31.2250   21.9960 C   0  0  0  0  0  0  0  0  0  0  0  0
   16.6670  -34.1590   20.6510 N   0  0  0  0  0  0  0  0  0  0  0  0
   17.4370  -35.4010   20.5980 C   0  0  2  0  0  0  0  0  0  0  0  0
   17.7990  -35.7100   19.1420 C   0  0  0  0  0  0  0  0  0  0  0  0
   17.0070  -35.4530   18.2320 O   0  0  0  0  0  0  0  0  0  0  0  0
   16.6890  -36.5830   21.2490 C   0  0  0  0  0  0  0  0  0  0  0  0
   16.5860  -36.5240   22.7790 C   0  0  0  0  0  0  0  0  0  0  0  0
   17.9240  -36.6820   23.5260 C   0  0  0  0  0  0  0  0  0  0  0  0
   18.3080  -35.4250   24.2770 C   0  0  0  0  0  0  0  0  0  0  0  0
   19.6230  -35.5590   24.9550 N   0  0  0  0  0  0  0  0  0  0  0  0
   19.0120  -36.2240   18.9340 N   0  0  0  0  0  0  0  0  0  0  0  0
   19.5790  -36.5920   17.6400 C   0  0  2  0  0  0  0  0  0  0  0  0
   19.0650  -37.9720   17.1490 C   0  0  0  0  0  0  0  0  0  0  0  0
   18.9590  -38.9160   17.9490 O   0  0  0  0  0  0  0  0  0  0  0  0
   21.1080  -36.6040   17.7950 C   0  0  0  0  0  0  0  0  0  0  0  0
   21.9080  -36.9280   16.5640 C   0  0  0  0  0  0  0  0  0  0  0  0
   21.7580  -36.3040   15.5090 O   0  0  0  0  0  0  0  0  0  0  0  0
   22.8210  -37.8820   16.7000 N   0  0  0  0  0  0  0  0  0  0  0  0
   20.2580  -25.2030    8.6620 N   0  0  0  0  0  0  0  0  0  0  0  0
   20.1470  -23.7360    8.7540 C   0  0  2  0  0  0  0  0  0  0  0  0
   21.1930  -23.0660    9.6780 C   0  0  0  0  0  0  0  0  0  0  0  0
   21.4730  -21.8740    9.5190 O   0  0  0  0  0  0  0  0  0  0  0  0
   18.7260  -23.3260    9.1380 C   0  0  0  0  0  0  0  0  0  0  0  0
   17.8190  -23.6230    8.0870 O   0  0  0  0  0  0  0  0  0  0  0  0
   21.7690  -23.8420   10.5990 N   0  0  0  0  0  0  0  0  0  0  0  0
   22.7930  -23.3710   11.5290 C   0  0  0  0  0  0  0  0  0  0  0  0
   23.7100  -24.4460   12.0890 C   0  0  0  0  0  0  0  0  0  0  0  0
   23.5100  -25.6380   11.8490 O   0  0  0  0  0  0  0  0  0  0  0  0
   24.7120  -24.0080   12.8460 N   0  0  0  0  0  0  0  0  0  0  0  0
   25.6850  -24.8760   13.4950 C   0  0  0  0  0  0  0  0  0  0  0  0
   27.1120  -24.6130   13.0720 C   0  0  0  0  0  0  0  0  0  0  0  0
   27.3670  -23.7690   12.2110 O   0  0  0  0  0  0  0  0  0  0  0  0
   28.0520  -25.3470   13.6770 N   0  0  0  0  0  0  0  0  0  0  0  0
   29.4700  -25.2530   13.3530 C   0  0  2  0  0  0  0  0  0  0  0  0
   29.7720  -25.9760   12.0230 C   0  0  0  0  0  0  0  0  0  0  0  0
   28.9400  -26.7630   11.5470 O   0  0  0  0  0  0  0  0  0  0  0  0
   30.3240  -25.8190   14.5050 C   0  0  0  0  0  0  0  0  0  0  0  0
   30.4880  -24.9180   15.7280 C   0  0  0  0  0  0  0  0  0  0  0  0
   30.1100  -23.7140   15.6490 O   0  0  0  0  0  0  0  0  0  0  0  0
   31.0200  -25.4060   16.7560 O   0  0  0  0  0  0  0  0  0  0  0  0
   29.1560  -29.7060   11.3160 N   0  0  0  0  0  0  0  0  0  0  0  0
   27.7540  -30.0940   11.1360 C   0  0  2  0  0  0  0  0  0  0  0  0
   27.1400  -29.5280    9.8450 C   0  0  0  0  0  0  0  0  0  0  0  0
   26.2230  -30.1360    9.2900 O   0  0  0  0  0  0  0  0  0  0  0  0
   26.8480  -29.9830   12.4040 C   0  0  2  0  0  0  0  0  0  0  0  0
   26.0300  -28.6900   12.4890 C   0  0  0  0  0  0  0  0  0  0  0  0
   27.5850  -30.3030   13.6860 C   0  0  0  0  0  0  0  0  0  0  0  0
   24.5120  -28.9570   12.3330 C   0  0  0  0  0  0  0  0  0  0  0  0
   18.4990  -34.4630   12.3130 N   0  0  0  0  0  0  0  0  0  0  0  0
   17.6960  -33.7150   13.2900 C   0  0  2  0  0  0  0  0  0  0  0  0
   16.4020  -33.2810   12.6240 C   0  0  0  0  0  0  0  0  0  0  0  0
   16.4370  -32.6190   11.5840 O   0  0  0  0  0  0  0  0  0  0  0  0
   18.4450  -32.5330   13.9320 C   0  0  2  0  0  0  0  0  0  0  0  0
   19.1210  -31.7910   12.9170 O   0  0  0  0  0  0  0  0  0  0  0  0
   19.4110  -32.9710   15.0320 C   0  0  0  0  0  0  0  0  0  0  0  0
   23.4200  -33.3760   10.9550 N   0  0  0  0  0  0  0  0  0  0  0  0
   24.2110  -32.7400   11.9990 C   0  0  0  0  0  0  0  0  0  0  0  0
   24.1590  -33.4230   13.3450 C   0  0  0  0  0  0  0  0  0  0  0  0
   24.9480  -34.3330   13.6040 O   0  0  0  0  0  0  0  0  0  0  0  0
   23.2770  -32.9340   14.2150 N   0  0  0  0  0  0  0  0  0  0  0  0
   23.0960  -33.4670   15.5630 C   0  0  0  0  0  0  0  0  0  0  0  0
   23.2390  -32.4720   16.7070 C   0  0  0  0  0  0  0  0  0  0  0  0
   22.8910  -31.3010   16.5470 O   0  0  0  0  0  0  0  0  0  0  0  0
   23.7290  -32.9260   17.8740 N   0  0  0  0  0  0  0  0  0  0  0  0
   24.1480  -34.3040   18.1430 C   0  0  0  0  0  0  0  0  0  0  0  0
   25.6470  -34.5250   18.0300 C   0  0  0  0  0  0  0  0  0  0  0  0
   26.2110  -34.4380   16.9320 O   0  0  0  0  0  0  0  0  0  0  0  0
   26.3040  -34.8300   19.1690 N   0  0  0  0  0  0  0  0  0  0  0  0
   27.7550  -35.0340   19.2200 C   0  0  2  0  0  0  0  0  0  0  0  0
   28.2630  -36.4850   19.1860 C   0  0  0  0  0  0  0  0  0  0  0  0
   29.0400  -36.8370   18.2920 O   0  0  0  0  0  0  0  0  0  0  0  0
   28.4060  -34.2200   20.3580 C   0  0  0  0  0  0  0  0  0  0  0  0
   27.7780  -34.4250   21.7230 C   0  0  0  0  0  0  0  0  0  0  0  0
   26.6620  -33.9050   21.9470 O   0  0  0  0  0  0  0  0  0  0  0  0
   28.4180  -35.0770   22.5780 O   0  0  0  0  0  0  0  0  0  0  0  0
  2  1  1  1
  3  2  1  0
  4  3  2  0
  5  2  1  0
  6  5  1  0
  7  6  1  0
  8  7  1  0
  9  8  1  0
 10  3  1  0
 11 10  1  0
 11 12  1  6
 13 12  2  0
 14 11  1  0
 15 14  1  0
 16 15  1  0
 16 10  1  0
 17 12  1  0
 18 17  1  6
 19 18  1  0
 20 19  2  0
 21 18  1  0
 22 21  1  0
 23 21  1  0
 25 24  1  1
 26 25  1  0
 27 26  2  0
 28 25  1  0
 29 28  1  0
 31 30  1  1
 32 31  1  0
 33 32  2  0
 34 31  1  0
 35 34  1  0
 36 35  2  0
 37 35  1  0
 38 32  1  0
 39 38  1  0
 40 39  1  0
 41 40  2  0
 39 42  1  1
 43 40  1  0
 44 43  1  0
 45 44  1  0
 46 45  2  0
 44 47  1  6
 48 47  1  0
 49 48  1  0
 50 49  1  0
 51 50  1  0
 52 45  1  0
 53 52  1  0
 54 53  1  0
 55 54  2  0
 53 56  1  1
 57 56  1  0
 58 57  2  0
 59 57  1  0
 61 60  1  1
 62 61  1  0
 63 62  2  0
 64 61  1  0
 65 64  1  0
 66 62  1  0
 67 66  1  0
 68 67  1  0
 69 68  2  0
 70 68  1  0
 71 70  1  0
 72 71  1  0
 73 72  2  0
 74 72  1  0
 75 74  1  0
 76 75  1  0
 77 76  2  0
 75 78  1  1
 79 78  1  0
 80 79  2  0
 81 79  1  0
 83 82  1  1
 84 83  1  0
 85 84  2  0
 86 83  1  0
 87 86  1  0
 86 88  1  1
 89 87  1  0
 91 90  1  6
 92 91  1  0
 93 92  2  0
 94 91  1  0
 95 94  1  0
 94 96  1  1
 98 97  1  0
 99 98  1  0
100 99  2  0
101 99  1  0
102101  1  0
103102  1  0
104103  2  0
105103  1  0
106105  1  0
107106  1  0
108107  2  0
109107  1  0
110109  1  0
111110  1  0
112111  2  0
110113  1  1
114113  1  0
115114  2  0
116114  1  0
M  END
$$$$
