
     RDKit          3D

 67 64  0  0  0  0  0  0  0  0999 V2000
   14.5850  -40.6670   22.1890 N   0  0  0  0  0  0  0  0  0  0  0  0
   13.1560  -40.3410   22.0820 C   0  0  2  0  0  0  0  0  0  0  0  0
   12.9510  -39.7600   20.6800 C   0  0  0  0  0  0  0  0  0  0  0  0
   13.4060  -38.6450   20.3920 O   0  0  0  0  0  0  0  0  0  0  0  0
   12.6730  -39.3710   23.1880 C   0  0  0  0  0  0  0  0  0  0  0  0
   11.2000  -38.9690   23.1060 C   0  0  0  0  0  0  0  0  0  0  0  0
   10.4240  -39.6730   22.4160 O   0  0  0  0  0  0  0  0  0  0  0  0
   10.8180  -37.9630   23.7530 O   0  0  0  0  0  0  0  0  0  0  0  0
   10.2970  -38.6510   19.2290 N   0  0  0  0  0  0  0  0  0  0  0  0
    9.3900  -37.5010   19.1990 C   0  0  2  0  0  0  0  0  0  0  0  0
   10.0700  -36.2430   19.7560 C   0  0  0  0  0  0  0  0  0  0  0  0
    9.4750  -35.1610   19.7210 O   0  0  0  0  0  0  0  0  0  0  0  0
    8.1060  -37.8100   19.9760 C   0  0  0  0  0  0  0  0  0  0  0  0
    7.4400  -38.9830   19.5290 O   0  0  0  0  0  0  0  0  0  0  0  0
   11.3220  -36.3820   20.2500 N   0  0  0  0  0  0  0  0  0  0  0  0
   12.1360  -35.3020   20.8350 C   0  0  2  0  0  0  0  0  0  0  0  0
   13.0790  -34.6990   19.7750 C   0  0  0  0  0  0  0  0  0  0  0  0
   14.1340  -35.2770   19.4980 O   0  0  0  0  0  0  0  0  0  0  0  0
   12.9430  -35.8640   22.0260 C   0  0  0  0  0  0  0  0  0  0  0  0
   13.4730  -34.8650   23.0290 C   0  0  0  0  0  0  0  0  0  0  0  0
   14.1360  -33.9000   22.6090 O   0  0  0  0  0  0  0  0  0  0  0  0
   13.3430  -35.1240   24.2460 O   0  0  0  0  0  0  0  0  0  0  0  0
   12.6990  -33.5420   19.1820 N   0  0  0  0  0  0  0  0  0  0  0  0
   13.5090  -32.8790   18.1470 C   0  0  2  0  0  0  0  0  0  0  0  0
   14.9220  -32.4670   18.6250 C   0  0  0  0  0  0  0  0  0  0  0  0
   15.8840  -32.5710   17.8520 O   0  0  0  0  0  0  0  0  0  0  0  0
   12.7480  -31.7630   17.4110 C   0  0  0  0  0  0  0  0  0  0  0  0
   12.5390  -30.4830   18.1750 C   0  0  0  0  0  0  0  0  0  0  0  0
   13.4760  -29.7870   18.5800 O   0  0  0  0  0  0  0  0  0  0  0  0
   11.2950  -30.0770   18.2760 N   0  0  0  0  0  0  0  0  0  0  0  0
   15.2670  -33.6880   13.2070 N   0  0  0  0  0  0  0  0  0  0  0  0
   13.9340  -33.3690   12.7060 C   0  0  2  0  0  0  0  0  0  0  0  0
   13.5130  -31.9540   13.1400 C   0  0  0  0  0  0  0  0  0  0  0  0
   13.7620  -31.5450   14.2770 O   0  0  0  0  0  0  0  0  0  0  0  0
   12.9340  -34.4370   13.1860 C   0  0  0  0  0  0  0  0  0  0  0  0
   11.5190  -34.3020   12.6370 C   0  0  0  0  0  0  0  0  0  0  0  0
   10.5110  -35.1420   13.4100 C   0  0  0  0  0  0  0  0  0  0  0  0
   10.5220  -34.8940   14.8590 N   0  0  0  0  0  0  0  0  0  0  0  0
    9.8120  -33.9500   15.4770 C   0  0  0  0  0  0  0  0  0  0  0  0
    9.0340  -33.1310   14.7800 N   0  0  0  0  0  0  0  0  0  0  0  0
    9.8880  -33.8100   16.7940 N   0  0  0  0  0  0  0  0  0  0  0  0
   12.8850  -31.2140   12.2180 N   0  0  0  0  0  0  0  0  0  0  0  0
   12.3880  -29.8620   12.4550 C   0  0  2  0  0  0  0  0  0  0  0  0
   11.1700  -29.8780   13.3650 C   0  0  0  0  0  0  0  0  0  0  0  0
   10.2570  -30.6960   13.1760 O   0  0  0  0  0  0  0  0  0  0  0  0
   12.0450  -29.1740   11.1260 C   0  0  0  0  0  0  0  0  0  0  0  0
   13.2360  -28.8310   10.2570 C   0  0  0  0  0  0  0  0  0  0  0  0
   14.3310  -29.4100   10.4810 O   0  0  0  0  0  0  0  0  0  0  0  0
   13.0860  -27.9670    9.3670 O   0  0  0  0  0  0  0  0  0  0  0  0
   11.1650  -28.9670   14.3360 N   0  0  0  0  0  0  0  0  0  0  0  0
   10.0820  -28.8340   15.3050 C   0  0  0  0  0  0  0  0  0  0  0  0
    8.9210  -27.9480   14.8910 C   0  0  0  0  0  0  0  0  0  0  0  0
    8.9630  -27.2650   13.8620 O   0  0  0  0  0  0  0  0  0  0  0  0
    7.8770  -27.9890   15.7050 N   0  0  0  0  0  0  0  0  0  0  0  0
    6.6820  -27.1820   15.5270 C   0  0  0  0  0  0  0  0  0  0  0  0
    5.4640  -27.8420   14.9230 C   0  0  0  0  0  0  0  0  0  0  0  0
    5.5660  -28.7940   14.1460 O   0  0  0  0  0  0  0  0  0  0  0  0
    4.2960  -27.3020   15.3020 N   0  0  0  0  0  0  0  0  0  0  0  0
    2.9540  -27.6670   14.8510 C   0  0  2  0  0  0  0  0  0  0  0  0
    2.6630  -26.8530   13.5940 C   0  0  0  0  0  0  0  0  0  0  0  0
    2.0330  -27.3600   12.6640 O   0  0  0  0  0  0  0  0  0  0  0  0
    1.9280  -27.3310   15.9310 C   0  0  0  0  0  0  0  0  0  0  0  0
    0.6130  -27.6360   15.4940 O   0  0  0  0  0  0  0  0  0  0  0  0
    3.2220  -25.6480   13.5810 N   0  0  0  0  0  0  0  0  0  0  0  0
    3.0890  -24.6840   12.5080 C   0  0  0  0  0  0  0  0  0  0  0  0
    3.6760  -25.2430   11.2380 C   0  0  0  0  0  0  0  0  0  0  0  0
    3.2650  -24.8860   10.1390 O   0  0  0  0  0  0  0  0  0  0  0  0
  2  1  1  1
  3  2  1  0
  4  3  2  0
  5  2  1  0
  6  5  1  0
  7  6  2  0
  8  6  1  0
 10  9  1  1
 11 10  1  0
 12 11  2  0
 13 10  1  0
 14 13  1  0
 15 11  1  0
 16 15  1  0
 17 16  1  0
 18 17  2  0
 16 19  1  1
 20 19  1  0
 21 20  2  0
 22 20  1  0
 23 17  1  0
 24 23  1  0
 25 24  1  0
 26 25  2  0
 24 27  1  1
 28 27  1  0
 29 28  2  0
 30 28  1  0
 32 31  1  1
 33 32  1  0
 34 33  2  0
 35 32  1  0
 36 35  1  0
 37 36  1  0
 38 37  1  0
 39 38  1  0
 40 39  1  0
 41 39  2  0
 42 33  1  0
 43 42  1  0
 44 43  1  0
 45 44  2  0
 43 46  1  6
 47 46  1  0
 48 47  2  0
 49 47  1  0
 50 44  1  0
 51 50  1  0
 52 51  1  0
 53 52  2  0
 54 52  1  0
 55 54  1  0
 56 55  1  0
 57 56  2  0
 58 56  1  0
 59 58  1  0
 60 59  1  0
 61 60  2  0
 59 62  1  1
 63 62  1  0
 64 60  1  0
 65 64  1  0
 66 65  1  0
 67 66  2  0
M  END
$$$$
