
     RDKit          3D

143138  0  0  0  0  0  0  0  0999 V2000
  -15.1950   12.1080   40.6100 N   0  0  0  0  0  0  0  0  0  0  0  0
  -16.1440   12.9820   39.8950 C   0  0  2  0  0  0  0  0  0  0  0  0
  -16.3270   12.6250   38.4240 C   0  0  0  0  0  0  0  0  0  0  0  0
  -15.4480   12.0490   37.7960 O   0  0  0  0  0  0  0  0  0  0  0  0
  -15.7130   14.4440   39.9580 C   0  0  0  0  0  0  0  0  0  0  0  0
  -15.7470   15.0300   41.3250 C   0  0  0  0  0  0  0  0  0  0  0  0
  -16.9330   15.4440   41.8820 C   0  0  0  0  0  0  0  0  0  0  0  0
  -14.5850   15.1900   42.0470 C   0  0  0  0  0  0  0  0  0  0  0  0
  -16.9600   15.9880   43.1390 C   0  0  0  0  0  0  0  0  0  0  0  0
  -14.6020   15.7370   43.2950 C   0  0  0  0  0  0  0  0  0  0  0  0
  -15.7880   16.1320   43.8460 C   0  0  0  0  0  0  0  0  0  0  0  0
  -16.5710   19.9050   35.4500 N   0  0  0  0  0  0  0  0  0  0  0  0
  -15.8250   19.4200   36.6040 C   0  0  2  0  0  0  0  0  0  0  0  0
  -14.8300   20.4940   37.0510 C   0  0  0  0  0  0  0  0  0  0  0  0
  -14.6340   20.7260   38.2530 O   0  0  0  0  0  0  0  0  0  0  0  0
  -15.1300   18.1250   36.2380 C   0  0  0  0  0  0  0  0  0  0  0  0
  -14.5910   17.3110   37.3920 C   0  0  0  0  0  0  0  0  0  0  0  0
  -13.6580   16.2000   36.9090 C   0  0  0  0  0  0  0  0  0  0  0  0
  -13.3190   16.1390   35.7320 O   0  0  0  0  0  0  0  0  0  0  0  0
  -13.2330   15.3330   37.8150 N   0  0  0  0  0  0  0  0  0  0  0  0
  -14.2340   21.1720   36.0690 N   0  0  0  0  0  0  0  0  0  0  0  0
  -13.3440   22.2740   36.3410 C   0  0  2  0  0  0  0  0  0  0  0  0
  -14.0010   23.4030   37.1760 C   0  0  0  0  0  0  0  0  0  0  0  0
  -13.4420   23.8460   38.1650 O   0  0  0  0  0  0  0  0  0  0  0  0
  -12.7340   22.7990   35.0320 C   0  0  0  0  0  0  0  0  0  0  0  0
  -11.6130   23.8770   35.2320 C   0  0  0  0  0  0  0  0  0  0  0  0
  -11.1700   24.5580   33.9260 C   0  0  0  0  0  0  0  0  0  0  0  0
  -12.3400   24.8300   32.9410 C   0  0  0  0  0  0  0  0  0  0  0  0
  -13.4810   25.6460   33.4800 N   0  0  0  0  0  0  0  0  0  0  0  0
  -15.1880   23.8540   36.7980 N   0  0  0  0  0  0  0  0  0  0  0  0
  -15.8450   24.9520   37.5220 C   0  0  2  0  0  0  0  0  0  0  0  0
  -16.1950   24.6170   38.9750 C   0  0  0  0  0  0  0  0  0  0  0  0
  -15.9910   25.4100   39.8940 O   0  0  0  0  0  0  0  0  0  0  0  0
  -17.0780   25.4520   36.7560 C   0  0  0  0  0  0  0  0  0  0  0  0
  -16.7450   26.4380   35.6810 C   0  0  0  0  0  0  0  0  0  0  0  0
  -16.2260   27.6890   35.9550 N   0  0  0  0  0  0  0  0  0  0  0  0
  -16.8240   26.3560   34.3310 C   0  0  0  0  0  0  0  0  0  0  0  0
  -16.0140   28.3360   34.8260 C   0  0  0  0  0  0  0  0  0  0  0  0
  -16.3660   27.5480   33.8210 N   0  0  0  0  0  0  0  0  0  0  0  0
  -14.6810   22.3690   40.7270 N   0  0  0  0  0  0  0  0  0  0  0  0
  -13.4510   22.1540   41.4780 C   0  0  2  0  0  0  0  0  0  0  0  0
  -12.6310   23.4320   41.6090 C   0  0  0  0  0  0  0  0  0  0  0  0
  -11.5660   23.4330   42.1870 O   0  0  0  0  0  0  0  0  0  0  0  0
  -12.6280   21.0210   40.8620 C   0  0  0  0  0  0  0  0  0  0  0  0
  -13.2540   19.6170   40.8670 C   0  0  0  0  0  0  0  0  0  0  0  0
  -12.2950   18.5550   40.3620 C   0  0  0  0  0  0  0  0  0  0  0  0
  -13.7480   19.2510   42.2430 C   0  0  0  0  0  0  0  0  0  0  0  0
  -13.1690   24.5280   41.1000 N   0  0  0  0  0  0  0  0  0  0  0  0
  -12.6060   25.8670   41.2580 C   0  0  2  0  0  0  0  0  0  0  0  0
  -13.0990   26.5310   42.5420 C   0  0  0  0  0  0  0  0  0  0  0  0
  -12.9960   27.7400   42.7000 O   0  0  0  0  0  0  0  0  0  0  0  0
  -12.9600   26.7500   40.0650 C   0  0  0  0  0  0  0  0  0  0  0  0
  -12.4060   26.2480   38.8640 O   0  0  0  0  0  0  0  0  0  0  0  0
  -13.7470   25.7520   43.3970 N   0  0  0  0  0  0  0  0  0  0  0  0
  -14.1240   26.1980   44.7430 C   0  0  2  0  0  0  0  0  0  0  0  0
  -15.1610   27.3100   44.8120 C   0  0  0  0  0  0  0  0  0  0  0  0
  -15.2180   28.0700   45.7850 O   0  0  0  0  0  0  0  0  0  0  0  0
  -12.8910   26.6250   45.5350 C   0  0  0  0  0  0  0  0  0  0  0  0
  -12.7220   25.8220   46.7940 C   0  0  0  0  0  0  0  0  0  0  0  0
  -13.1180   24.6300   46.7670 O   0  0  0  0  0  0  0  0  0  0  0  0
  -12.2140   26.3820   47.7950 O   0  0  0  0  0  0  0  0  0  0  0  0
  -18.5120   22.5490   46.6700 N   0  0  0  0  0  0  0  0  0  0  0  0
  -17.8830   21.2280   46.6820 C   0  0  2  0  0  0  0  0  0  0  0  0
  -17.7330   20.7530   48.1180 C   0  0  0  0  0  0  0  0  0  0  0  0
  -17.5090   21.5440   49.0250 O   0  0  0  0  0  0  0  0  0  0  0  0
  -16.5280   21.2570   45.9760 C   0  0  0  0  0  0  0  0  0  0  0  0
  -15.6110   20.1170   46.3450 C   0  0  0  0  0  0  0  0  0  0  0  0
  -14.2130   20.2940   45.7360 C   0  0  0  0  0  0  0  0  0  0  0  0
  -13.4470   21.4820   46.3340 C   0  0  0  0  0  0  0  0  0  0  0  0
  -12.7430   22.2850   45.2780 N   0  0  0  0  0  0  0  0  0  0  0  0
  -12.7340   18.4720   52.0490 N   0  0  0  0  0  0  0  0  0  0  0  0
  -11.8270   17.3620   52.3560 C   0  0  2  0  0  0  0  0  0  0  0  0
  -11.8980   16.8450   53.7990 C   0  0  0  0  0  0  0  0  0  0  0  0
  -11.9830   17.6240   54.7620 O   0  0  0  0  0  0  0  0  0  0  0  0
  -10.3770   17.7540   52.0270 C   0  0  0  0  0  0  0  0  0  0  0  0
  -10.0310   17.5820   50.5470 C   0  0  0  0  0  0  0  0  0  0  0  0
  -10.9240   17.7560   49.6670 O   0  0  0  0  0  0  0  0  0  0  0  0
   -8.8500   17.2730   50.2750 O   0  0  0  0  0  0  0  0  0  0  0  0
   -3.1740   27.8050   51.7780 N   0  0  0  0  0  0  0  0  0  0  0  0
   -3.6430   27.8600   50.4020 C   0  0  2  0  0  0  0  0  0  0  0  0
   -3.0560   29.0580   49.6950 C   0  0  0  0  0  0  0  0  0  0  0  0
   -3.0500   30.1640   50.2330 O   0  0  0  0  0  0  0  0  0  0  0  0
   -5.1310   27.9290   50.3670 C   0  0  0  0  0  0  0  0  0  0  0  0
   -2.5670   28.8480   48.4760 N   0  0  0  0  0  0  0  0  0  0  0  0
   -1.8890   29.8970   47.6960 C   0  0  2  0  0  0  0  0  0  0  0  0
   -2.7770   31.0700   47.2750 C   0  0  0  0  0  0  0  0  0  0  0  0
   -3.0360   31.2480   46.0970 O   0  0  0  0  0  0  0  0  0  0  0  0
   -1.3810   29.1440   46.4560 C   0  0  0  0  0  0  0  0  0  0  0  0
   -2.2130   27.9220   46.3910 C   0  0  0  0  0  0  0  0  0  0  0  0
   -2.5130   27.5460   47.8080 C   0  0  0  0  0  0  0  0  0  0  0  0
   -3.2460   31.8520   48.2350 N   0  0  0  0  0  0  0  0  0  0  0  0
   -3.9740   33.0760   47.9250 C   0  0  2  0  0  0  0  0  0  0  0  0
   -3.6800   34.1360   48.9960 C   0  0  0  0  0  0  0  0  0  0  0  0
   -3.6750   33.8220   50.1850 O   0  0  0  0  0  0  0  0  0  0  0  0
   -5.4690   32.7860   47.8000 C   0  0  0  0  0  0  0  0  0  0  0  0
   -5.9120   31.9450   48.8560 O   0  0  0  0  0  0  0  0  0  0  0  0
    4.2280   33.3890   48.0030 N   0  0  0  0  0  0  0  0  0  0  0  0
    3.8020   32.1790   47.3220 C   0  0  2  0  0  0  0  0  0  0  0  0
    4.9970   31.2720   47.0570 C   0  0  0  0  0  0  0  0  0  0  0  0
    5.9950   31.6940   46.4980 O   0  0  0  0  0  0  0  0  0  0  0  0
    3.1870   32.5910   46.0060 C   0  0  0  0  0  0  0  0  0  0  0  0
    2.1080   31.7540   45.5250 C   0  0  0  0  0  0  0  0  0  0  0  0
    1.2150   32.5810   44.6310 C   0  0  0  0  0  0  0  0  0  0  0  0
    0.6360   33.7990   45.3810 C   0  0  0  0  0  0  0  0  0  0  0  0
   -0.8500   34.0100   45.1140 N   0  0  0  0  0  0  0  0  0  0  0  0
    4.8980   30.0330   47.5110 N   0  0  0  0  0  0  0  0  0  0  0  0
    5.8780   28.9980   47.2400 C   0  0  2  0  0  0  0  0  0  0  0  0
    5.6870   28.3170   45.8810 C   0  0  0  0  0  0  0  0  0  0  0  0
    4.5880   28.3330   45.3250 O   0  0  0  0  0  0  0  0  0  0  0  0
    5.8760   27.9840   48.3760 C   0  0  0  0  0  0  0  0  0  0  0  0
    6.3640   28.5610   49.6890 C   0  0  0  0  0  0  0  0  0  0  0  0
    7.7000   29.2820   49.5800 C   0  0  0  0  0  0  0  0  0  0  0  0
    8.5830   28.8900   48.8050 O   0  0  0  0  0  0  0  0  0  0  0  0
    7.8610   30.3390   50.3660 N   0  0  0  0  0  0  0  0  0  0  0  0
    5.7090   25.1770   45.0740 N   0  0  0  0  0  0  0  0  0  0  0  0
    4.9260   23.9470   45.1070 C   0  0  2  0  0  0  0  0  0  0  0  0
    3.4470   24.1920   45.3130 C   0  0  0  0  0  0  0  0  0  0  0  0
    2.6840   23.2640   45.5960 O   0  0  0  0  0  0  0  0  0  0  0  0
    5.4390   22.9690   46.1420 C   0  0  0  0  0  0  0  0  0  0  0  0
    5.5600   23.5620   47.5180 C   0  0  0  0  0  0  0  0  0  0  0  0
    4.9910   24.6100   47.8300 O   0  0  0  0  0  0  0  0  0  0  0  0
    6.3110   22.8670   48.3620 N   0  0  0  0  0  0  0  0  0  0  0  0
    3.0450   25.4540   45.2460 N   0  0  0  0  0  0  0  0  0  0  0  0
    1.6380   25.7800   45.3250 C   0  0  0  0  0  0  0  0  0  0  0  0
    1.1380   25.9270   46.7460 C   0  0  0  0  0  0  0  0  0  0  0  0
   -0.0120   25.6420   47.0320 O   0  0  0  0  0  0  0  0  0  0  0  0
    2.0010   26.3480   47.6540 N   0  0  0  0  0  0  0  0  0  0  0  0
    1.5310   26.6880   48.9750 C   0  0  2  0  0  0  0  0  0  0  0  0
    1.7660   28.1760   49.2060 C   0  0  0  0  0  0  0  0  0  0  0  0
    2.2860   28.8530   48.3410 O   0  0  0  0  0  0  0  0  0  0  0  0
    2.2340   25.8380   50.0580 C   0  0  2  0  0  0  0  0  0  0  0  0
    3.6080   26.2480   50.1940 O   0  0  0  0  0  0  0  0  0  0  0  0
    2.1690   24.3770   49.6910 C   0  0  0  0  0  0  0  0  0  0  0  0
   -9.5880   28.6390   55.7010 N   0  0  0  0  0  0  0  0  0  0  0  0
   -9.3640   27.2110   55.5410 C   0  0  2  0  0  0  0  0  0  0  0  0
   -8.9140   26.5830   56.8410 C   0  0  0  0  0  0  0  0  0  0  0  0
   -8.4900   25.4310   56.8710 O   0  0  0  0  0  0  0  0  0  0  0  0
   -8.2920   26.9510   54.4980 C   0  0  0  0  0  0  0  0  0  0  0  0
   -8.7090   27.2840   53.1020 C   0  0  0  0  0  0  0  0  0  0  0  0
   -9.6000   28.2860   52.8120 N   0  0  0  0  0  0  0  0  0  0  0  0
   -8.3410   26.7370   51.9200 C   0  0  0  0  0  0  0  0  0  0  0  0
   -9.7620   28.3580   51.4990 C   0  0  0  0  0  0  0  0  0  0  0  0
   -9.0140   27.4280   50.9380 N   0  0  0  0  0  0  0  0  0  0  0  0
  2  1  1  6
  3  2  1  0
  4  3  2  0
  5  2  1  0
  6  5  1  0
  7  6  2  0
  8  6  1  0
  9  7  1  0
 10  8  2  0
 11  9  2  0
 11 10  1  0
 13 12  1  6
 14 13  1  0
 15 14  2  0
 16 13  1  0
 17 16  1  0
 18 17  1  0
 19 18  2  0
 20 18  1  0
 21 14  1  0
 22 21  1  0
 23 22  1  0
 24 23  2  0
 22 25  1  6
 26 25  1  0
 27 26  1  0
 28 27  1  0
 29 28  1  0
 30 23  1  0
 31 30  1  0
 32 31  1  0
 33 32  2  0
 31 34  1  6
 35 34  1  0
 36 35  1  0
 37 35  2  0
 38 36  2  0
 39 37  1  0
 39 38  1  0
 41 40  1  6
 42 41  1  0
 43 42  2  0
 44 41  1  0
 45 44  1  0
 46 45  1  0
 47 45  1  0
 48 42  1  0
 49 48  1  0
 50 49  1  0
 51 50  2  0
 49 52  1  6
 53 52  1  0
 54 50  1  0
 55 54  1  0
 56 55  1  0
 57 56  2  0
 55 58  1  6
 59 58  1  0
 60 59  2  0
 61 59  1  0
 63 62  1  1
 64 63  1  0
 65 64  2  0
 66 63  1  0
 67 66  1  0
 68 67  1  0
 69 68  1  0
 70 69  1  0
 72 71  1  1
 73 72  1  0
 74 73  2  0
 75 72  1  0
 76 75  1  0
 77 76  2  0
 78 76  1  0
 80 79  1  0
 81 80  1  0
 82 81  2  0
 80 83  1  1
 84 81  1  0
 85 84  1  0
 85 86  1  6
 87 86  2  0
 88 85  1  0
 89 88  1  0
 90 89  1  0
 90 84  1  0
 91 86  1  0
 92 91  1  0
 93 92  1  0
 94 93  2  0
 92 95  1  1
 96 95  1  0
 98 97  1  6
 99 98  1  0
100 99  2  0
101 98  1  0
102101  1  0
103102  1  0
104103  1  0
105104  1  0
106 99  1  0
107106  1  0
108107  1  0
109108  2  0
107110  1  1
111110  1  0
112111  1  0
113112  2  0
114112  1  0
116115  1  1
117116  1  0
118117  2  0
119116  1  0
120119  1  0
121120  2  0
122120  1  0
123117  1  0
124123  1  0
125124  1  0
126125  2  0
127125  1  0
128127  1  6
129128  1  0
130129  2  0
131128  1  0
132131  1  0
131133  1  6
135134  1  1
136135  1  0
137136  2  0
138135  1  0
139138  1  0
140139  1  0
141139  2  0
142140  2  0
143141  1  0
143142  1  0
M  END
$$$$
