
     RDKit          3D

154148  0  0  0  0  0  0  0  0999 V2000
   -9.8680  -15.5860   48.3380 N   0  0  0  0  0  0  0  0  0  0  0  0
  -10.0320  -16.3250   47.0990 C   0  0  2  0  0  0  0  0  0  0  0  0
  -11.2700  -17.2160   47.1900 C   0  0  0  0  0  0  0  0  0  0  0  0
  -11.7530  -17.5260   48.2890 O   0  0  0  0  0  0  0  0  0  0  0  0
   -8.8230  -17.2230   46.8090 C   0  0  2  0  0  0  0  0  0  0  0  0
   -8.7010  -18.1890   47.8610 O   0  0  0  0  0  0  0  0  0  0  0  0
   -7.5430  -16.4090   46.7010 C   0  0  0  0  0  0  0  0  0  0  0  0
  -12.8120  -19.8860   28.4070 N   0  0  0  0  0  0  0  0  0  0  0  0
  -12.4670  -20.6260   29.6200 C   0  0  2  0  0  0  0  0  0  0  0  0
  -11.2890  -20.0300   30.3880 C   0  0  0  0  0  0  0  0  0  0  0  0
  -11.0460  -20.3980   31.5330 O   0  0  0  0  0  0  0  0  0  0  0  0
  -12.2670  -22.1270   29.3210 C   0  0  0  0  0  0  0  0  0  0  0  0
  -10.9510  -22.4330   28.6390 C   0  0  0  0  0  0  0  0  0  0  0  0
   -9.8880  -22.0190   29.0990 O   0  0  0  0  0  0  0  0  0  0  0  0
  -11.0160  -23.1720   27.5370 N   0  0  0  0  0  0  0  0  0  0  0  0
  -10.5750  -19.0980   29.7690 N   0  0  0  0  0  0  0  0  0  0  0  0
   -9.4850  -18.4030   30.4510 C   0  0  2  0  0  0  0  0  0  0  0  0
   -9.9770  -17.2310   31.3090 C   0  0  0  0  0  0  0  0  0  0  0  0
   -9.1960  -16.6430   32.0560 O   0  0  0  0  0  0  0  0  0  0  0  0
   -8.4650  -17.9250   29.4260 C   0  0  0  0  0  0  0  0  0  0  0  0
  -11.2650  -16.8990   31.2150 N   0  0  0  0  0  0  0  0  0  0  0  0
  -11.8060  -15.7260   31.9080 C   0  0  2  0  0  0  0  0  0  0  0  0
  -12.4740  -16.0840   33.2280 C   0  0  0  0  0  0  0  0  0  0  0  0
  -13.2150  -17.0560   33.3130 O   0  0  0  0  0  0  0  0  0  0  0  0
  -12.8170  -14.9940   31.0270 C   0  0  0  0  0  0  0  0  0  0  0  0
  -12.2380  -14.3940   29.7720 C   0  0  0  0  0  0  0  0  0  0  0  0
  -11.2390  -13.2910   30.0530 C   0  0  0  0  0  0  0  0  0  0  0  0
  -10.7680  -12.6510   28.7570 C   0  0  0  0  0  0  0  0  0  0  0  0
   -9.8150  -11.5220   28.9730 N   0  0  0  0  0  0  0  0  0  0  0  0
  -12.2040  -15.2890   34.2580 N   0  0  0  0  0  0  0  0  0  0  0  0
  -12.8750  -15.4690   35.5380 C   0  0  2  0  0  0  0  0  0  0  0  0
  -14.3790  -15.1990   35.4100 C   0  0  0  0  0  0  0  0  0  0  0  0
  -14.8160  -14.3900   34.5910 O   0  0  0  0  0  0  0  0  0  0  0  0
  -12.2470  -14.5680   36.6420 C   0  0  2  0  0  0  0  0  0  0  0  0
  -12.6500  -15.0570   38.0370 C   0  0  0  0  0  0  0  0  0  0  0  0
  -12.5900  -13.1050   36.4400 C   0  0  0  0  0  0  0  0  0  0  0  0
  -11.9670  -16.3440   38.4280 C   0  0  0  0  0  0  0  0  0  0  0  0
   -8.3690  -27.2600   40.0480 N   0  0  0  0  0  0  0  0  0  0  0  0
   -7.4950  -28.1920   39.3380 C   0  0  2  0  0  0  0  0  0  0  0  0
   -6.0230  -28.0400   39.7070 C   0  0  0  0  0  0  0  0  0  0  0  0
   -5.2190  -28.9190   39.3790 O   0  0  0  0  0  0  0  0  0  0  0  0
   -7.6340  -28.0210   37.8200 C   0  0  0  0  0  0  0  0  0  0  0  0
   -8.8980  -28.4540   37.3560 O   0  0  0  0  0  0  0  0  0  0  0  0
   -5.6580  -26.9360   40.3540 N   0  0  0  0  0  0  0  0  0  0  0  0
   -4.2740  -26.7400   40.7360 C   0  0  0  0  0  0  0  0  0  0  0  0
   -3.8660  -25.3030   40.9520 C   0  0  0  0  0  0  0  0  0  0  0  0
   -4.6510  -24.3750   40.7850 O   0  0  0  0  0  0  0  0  0  0  0  0
   -2.6100  -25.1290   41.3390 N   0  0  0  0  0  0  0  0  0  0  0  0
   -2.0910  -23.8130   41.6220 C   0  0  0  0  0  0  0  0  0  0  0  0
   -1.5980  -23.7030   43.0560 C   0  0  0  0  0  0  0  0  0  0  0  0
   -1.6000  -24.6770   43.8190 O   0  0  0  0  0  0  0  0  0  0  0  0
   -1.1320  -22.5170   43.3990 N   0  0  0  0  0  0  0  0  0  0  0  0
   -0.6510  -22.2590   44.7540 C   0  0  2  0  0  0  0  0  0  0  0  0
   -1.7780  -22.4560   45.7770 C   0  0  0  0  0  0  0  0  0  0  0  0
   -2.9550  -22.2950   45.4500 O   0  0  0  0  0  0  0  0  0  0  0  0
   -0.1160  -20.8360   44.8300 C   0  0  0  0  0  0  0  0  0  0  0  0
    1.1920  -20.6490   44.0630 C   0  0  0  0  0  0  0  0  0  0  0  0
    1.8430  -21.6570   43.6620 O   0  0  0  0  0  0  0  0  0  0  0  0
    1.5700  -19.4690   43.8730 O   0  0  0  0  0  0  0  0  0  0  0  0
   -2.9980  -20.6950   48.0380 N   0  0  0  0  0  0  0  0  0  0  0  0
   -3.8610  -19.5430   48.2190 C   0  0  2  0  0  0  0  0  0  0  0  0
   -5.0960  -19.5980   47.3310 C   0  0  0  0  0  0  0  0  0  0  0  0
   -6.1530  -19.0620   47.7050 O   0  0  0  0  0  0  0  0  0  0  0  0
   -3.0800  -18.2480   47.9650 C   0  0  0  0  0  0  0  0  0  0  0  0
   -2.0730  -17.8980   49.0620 C   0  0  0  0  0  0  0  0  0  0  0  0
   -0.7870  -18.7210   49.0270 C   0  0  0  0  0  0  0  0  0  0  0  0
   -0.4600  -19.3330   47.9850 O   0  0  0  0  0  0  0  0  0  0  0  0
   -0.0840  -18.7490   50.0540 O   0  0  0  0  0  0  0  0  0  0  0  0
   -4.9660  -20.2220   46.1550 N   0  0  0  0  0  0  0  0  0  0  0  0
   -6.0800  -20.2860   45.2110 C   0  0  2  0  0  0  0  0  0  0  0  0
   -6.7780  -21.6450   45.1240 C   0  0  0  0  0  0  0  0  0  0  0  0
   -7.9200  -21.7100   44.6720 O   0  0  0  0  0  0  0  0  0  0  0  0
   -5.6740  -19.8010   43.7840 C   0  0  2  0  0  0  0  0  0  0  0  0
   -4.7160  -20.7830   43.1050 C   0  0  0  0  0  0  0  0  0  0  0  0
   -5.0770  -18.4190   43.8670 C   0  0  0  0  0  0  0  0  0  0  0  0
   -4.5260  -20.5280   41.5950 C   0  0  0  0  0  0  0  0  0  0  0  0
   -8.7880  -18.9780   50.8590 N   0  0  0  0  0  0  0  0  0  0  0  0
   -7.8760  -18.2990   51.7600 C   0  0  2  0  0  0  0  0  0  0  0  0
   -8.4150  -16.9200   52.1030 C   0  0  0  0  0  0  0  0  0  0  0  0
   -9.0550  -16.2570   51.2850 O   0  0  0  0  0  0  0  0  0  0  0  0
   -6.4620  -18.2130   51.1810 C   0  0  0  0  0  0  0  0  0  0  0  0
   -6.4340  -17.4180   50.0040 O   0  0  0  0  0  0  0  0  0  0  0  0
    2.3090  -17.0740   50.2730 N   0  0  0  0  0  0  0  0  0  0  0  0
    2.6300  -16.3640   49.0540 C   0  0  2  0  0  0  0  0  0  0  0  0
    1.8470  -15.0530   49.0220 C   0  0  0  0  0  0  0  0  0  0  0  0
    0.6250  -15.0470   49.1340 O   0  0  0  0  0  0  0  0  0  0  0  0
    2.2730  -17.2160   47.8430 C   0  0  0  0  0  0  0  0  0  0  0  0
    2.9920  -18.5550   47.8300 C   0  0  0  0  0  0  0  0  0  0  0  0
    4.2180  -18.6250   47.9380 O   0  0  0  0  0  0  0  0  0  0  0  0
    2.2290  -19.6310   47.6750 N   0  0  0  0  0  0  0  0  0  0  0  0
    2.5590  -13.9430   48.8800 N   0  0  0  0  0  0  0  0  0  0  0  0
    1.9250  -12.6360   48.8690 C   0  0  2  0  0  0  0  0  0  0  0  0
    1.0400  -12.4640   47.6340 C   0  0  0  0  0  0  0  0  0  0  0  0
    1.3590  -12.9600   46.5460 O   0  0  0  0  0  0  0  0  0  0  0  0
    2.9910  -11.5380   48.9100 C   0  0  0  0  0  0  0  0  0  0  0  0
    3.7710  -11.4790   50.2160 C   0  0  0  0  0  0  0  0  0  0  0  0
    5.0500  -10.2110   50.2150 S   0  0  0  0  0  0  0  0  0  0  0  0
    6.3060  -10.9750   49.1960 C   0  0  0  0  0  0  0  0  0  0  0  0
   -0.0840  -11.7750   47.8110 N   0  0  0  0  0  0  0  0  0  0  0  0
   -0.9340  -11.4090   46.6810 C   0  0  2  0  0  0  0  0  0  0  0  0
   -0.4720  -10.0850   46.0650 C   0  0  0  0  0  0  0  0  0  0  0  0
   -0.6670   -9.8540   44.8740 O   0  0  0  0  0  0  0  0  0  0  0  0
   -2.4120  -11.3180   47.0920 C   0  0  0  0  0  0  0  0  0  0  0  0
   -2.6960  -10.2840   48.1370 C   0  0  0  0  0  0  0  0  0  0  0  0
   -2.7060  -10.4660   49.4930 C   0  0  0  0  0  0  0  0  0  0  0  0
   -3.0130   -8.9000   47.9190 C   0  0  0  0  0  0  0  0  0  0  0  0
   -2.9990   -9.2870   50.1240 N   0  0  0  0  0  0  0  0  0  0  0  0
   -3.1960   -8.3100   49.1840 C   0  0  0  0  0  0  0  0  0  0  0  0
   -3.1540   -8.1050   46.7780 C   0  0  0  0  0  0  0  0  0  0  0  0
   -3.5140   -6.9610   49.3420 C   0  0  0  0  0  0  0  0  0  0  0  0
   -3.4680   -6.7660   46.9360 C   0  0  0  0  0  0  0  0  0  0  0  0
   -3.6460   -6.2050   48.2100 C   0  0  0  0  0  0  0  0  0  0  0  0
  -14.1740  -20.5320   37.6720 N   0  0  0  0  0  0  0  0  0  0  0  0
  -13.7480  -20.7350   36.3030 C   0  0  2  0  0  0  0  0  0  0  0  0
  -14.5430  -21.9020   35.7370 C   0  0  0  0  0  0  0  0  0  0  0  0
  -15.1130  -22.7000   36.4770 O   0  0  0  0  0  0  0  0  0  0  0  0
  -12.2500  -21.0460   36.2090 C   0  0  2  0  0  0  0  0  0  0  0  0
  -11.9900  -22.3280   36.7860 O   0  0  0  0  0  0  0  0  0  0  0  0
  -11.4440  -19.9770   36.9340 C   0  0  0  0  0  0  0  0  0  0  0  0
   -9.9130  -17.4670   41.5090 N   0  0  0  0  0  0  0  0  0  0  0  0
   -9.5110  -16.1890   42.0600 C   0  0  0  0  0  0  0  0  0  0  0  0
   -8.0030  -16.1050   42.1780 C   0  0  0  0  0  0  0  0  0  0  0  0
   -7.2800  -16.8420   41.4970 O   0  0  0  0  0  0  0  0  0  0  0  0
   -7.5320  -15.1960   43.0310 N   0  0  0  0  0  0  0  0  0  0  0  0
   -6.1110  -14.9760   43.2270 C   0  0  0  0  0  0  0  0  0  0  0  0
   -5.6630  -13.5660   42.8740 C   0  0  0  0  0  0  0  0  0  0  0  0
   -4.7530  -13.0230   43.5040 O   0  0  0  0  0  0  0  0  0  0  0  0
   -6.2840  -12.9810   41.8500 N   0  0  0  0  0  0  0  0  0  0  0  0
   -6.0470  -11.5900   41.4850 C   0  0  2  0  0  0  0  0  0  0  0  0
   -7.0890  -10.7290   42.1870 C   0  0  0  0  0  0  0  0  0  0  0  0
   -8.2730  -10.7500   41.8300 O   0  0  0  0  0  0  0  0  0  0  0  0
   -6.1510  -11.4150   39.9570 C   0  0  0  0  0  0  0  0  0  0  0  0
   -5.8090  -10.0100   39.4900 C   0  0  0  0  0  0  0  0  0  0  0  0
   -5.7000   -9.0830   40.3190 O   0  0  0  0  0  0  0  0  0  0  0  0
   -5.6590   -9.8240   38.2620 O   0  0  0  0  0  0  0  0  0  0  0  0
   -6.6670   -9.9890   43.2080 N   0  0  0  0  0  0  0  0  0  0  0  0
   -7.6230   -9.2680   44.0340 C   0  0  2  0  0  0  0  0  0  0  0  0
   -8.3160   -8.1440   43.2810 C   0  0  0  0  0  0  0  0  0  0  0  0
   -9.3270   -7.6120   43.7480 O   0  0  0  0  0  0  0  0  0  0  0  0
   -6.9610   -8.7280   45.3120 C   0  0  0  0  0  0  0  0  0  0  0  0
   -6.3770   -9.8130   46.2110 C   0  0  0  0  0  0  0  0  0  0  0  0
   -7.5500  -11.1220   46.6330 S   0  0  0  0  0  0  0  0  0  0  0  0
   -6.4300  -12.4720   46.9590 C   0  0  0  0  0  0  0  0  0  0  0  0
   -7.8040   -7.7960   42.1000 N   0  0  0  0  0  0  0  0  0  0  0  0
   -8.4850   -6.8260   41.2680 C   0  0  2  0  0  0  0  0  0  0  0  0
   -9.8830   -7.3310   40.9220 C   0  0  0  0  0  0  0  0  0  0  0  0
  -10.8090   -6.5490   40.7960 O   0  0  0  0  0  0  0  0  0  0  0  0
   -7.7060   -6.5560   39.9890 C   0  0  0  0  0  0  0  0  0  0  0  0
   -6.3900   -5.8210   40.1700 C   0  0  0  0  0  0  0  0  0  0  0  0
   -5.6400   -5.8090   38.8490 C   0  0  0  0  0  0  0  0  0  0  0  0
   -4.2890   -5.2680   38.9480 N   0  0  0  0  0  0  0  0  0  0  0  0
   -3.2120   -5.9770   39.2730 C   0  0  0  0  0  0  0  0  0  0  0  0
   -3.3120   -7.2680   39.5640 N   0  0  0  0  0  0  0  0  0  0  0  0
   -2.0270   -5.3880   39.3230 N   0  0  0  0  0  0  0  0  0  0  0  0
  2  1  1  1
  3  2  1  0
  4  3  2  0
  5  2  1  0
  6  5  1  0
  5  7  1  1
  9  8  1  6
 10  9  1  0
 11 10  2  0
 12  9  1  0
 13 12  1  0
 14 13  2  0
 15 13  1  0
 16 10  1  0
 17 16  1  0
 18 17  1  0
 19 18  2  0
 17 20  1  6
 21 18  1  0
 22 21  1  0
 23 22  1  0
 24 23  2  0
 22 25  1  6
 26 25  1  0
 27 26  1  0
 28 27  1  0
 29 28  1  0
 30 23  1  0
 31 30  1  6
 32 31  1  0
 33 32  2  0
 34 31  1  0
 35 34  1  0
 34 36  1  6
 37 35  1  0
 39 38  1  1
 40 39  1  0
 41 40  2  0
 42 39  1  0
 43 42  1  0
 44 40  1  0
 45 44  1  0
 46 45  1  0
 47 46  2  0
 48 46  1  0
 49 48  1  0
 50 49  1  0
 51 50  2  0
 52 50  1  0
 53 52  1  0
 54 53  1  0
 55 54  2  0
 53 56  1  6
 57 56  1  0
 58 57  2  0
 59 57  1  0
 61 60  1  6
 62 61  1  0
 63 62  2  0
 64 61  1  0
 65 64  1  0
 66 65  1  0
 67 66  2  0
 68 66  1  0
 69 62  1  0
 70 69  1  1
 71 70  1  0
 72 71  2  0
 73 70  1  0
 74 73  1  0
 73 75  1  1
 76 74  1  0
 78 77  1  6
 79 78  1  0
 80 79  2  0
 81 78  1  0
 82 81  1  0
 84 83  1  1
 85 84  1  0
 86 85  2  0
 87 84  1  0
 88 87  1  0
 89 88  2  0
 90 88  1  0
 91 85  1  0
 92 91  1  0
 93 92  1  0
 94 93  2  0
 92 95  1  6
 96 95  1  0
 97 96  1  0
 98 97  1  0
 99 93  1  0
100 99  1  0
101100  1  0
102101  2  0
100103  1  1
104103  1  0
105104  2  0
106104  1  0
107105  1  0
108106  2  0
108107  1  0
109106  1  0
110108  1  0
111109  2  0
112111  1  0
112110  2  0
114113  1  1
115114  1  0
116115  2  0
117114  1  0
118117  1  0
117119  1  1
121120  1  0
122121  1  0
123122  2  0
124122  1  0
125124  1  0
126125  1  0
127126  2  0
128126  1  0
129128  1  0
130129  1  0
131130  2  0
129132  1  6
133132  1  0
134133  2  0
135133  1  0
136130  1  0
137136  1  0
138137  1  0
139138  2  0
137140  1  1
141140  1  0
142141  1  0
143142  1  0
144138  1  0
145144  1  0
146145  1  0
147146  2  0
145148  1  6
149148  1  0
150149  1  0
151150  1  0
152151  1  0
153152  1  0
154152  2  0
M  END
$$$$
