
     RDKit          3D

178171  0  0  0  0  0  0  0  0999 V2000
   10.0430  -18.0530  -50.6760 N   0  0  0  0  0  0  0  0  0  0  0  0
   10.1530  -18.8430  -49.4560 C   0  0  2  0  0  0  0  0  0  0  0  0
   11.3740  -19.7630  -49.5210 C   0  0  0  0  0  0  0  0  0  0  0  0
   11.9080  -20.0220  -50.5990 O   0  0  0  0  0  0  0  0  0  0  0  0
    8.8890  -19.6880  -49.2220 C   0  0  2  0  0  0  0  0  0  0  0  0
    8.6980  -20.5740  -50.3300 O   0  0  0  0  0  0  0  0  0  0  0  0
    7.6660  -18.8020  -49.0950 C   0  0  0  0  0  0  0  0  0  0  0  0
   13.0480  -21.2850  -30.7200 N   0  0  0  0  0  0  0  0  0  0  0  0
   12.7550  -22.0630  -31.9190 C   0  0  2  0  0  0  0  0  0  0  0  0
   11.6770  -21.4180  -32.7780 C   0  0  0  0  0  0  0  0  0  0  0  0
   11.5740  -21.7040  -33.9700 O   0  0  0  0  0  0  0  0  0  0  0  0
   12.3570  -23.5030  -31.5560 C   0  0  0  0  0  0  0  0  0  0  0  0
   10.9370  -23.6050  -31.0140 C   0  0  0  0  0  0  0  0  0  0  0  0
    9.9680  -23.6190  -31.7770 O   0  0  0  0  0  0  0  0  0  0  0  0
   10.8100  -23.6950  -29.6930 N   0  0  0  0  0  0  0  0  0  0  0  0
   10.8740  -20.5530  -32.1660 N   0  0  0  0  0  0  0  0  0  0  0  0
    9.8200  -19.8450  -32.8850 C   0  0  2  0  0  0  0  0  0  0  0  0
   10.3680  -18.6510  -33.6710 C   0  0  0  0  0  0  0  0  0  0  0  0
    9.6140  -17.9280  -34.3250 O   0  0  0  0  0  0  0  0  0  0  0  0
    8.7230  -19.3990  -31.9240 C   0  0  0  0  0  0  0  0  0  0  0  0
   11.6830  -18.4530  -33.6030 N   0  0  0  0  0  0  0  0  0  0  0  0
   12.3430  -17.3840  -34.3490 C   0  0  2  0  0  0  0  0  0  0  0  0
   13.0450  -17.9170  -35.5930 C   0  0  0  0  0  0  0  0  0  0  0  0
   13.9630  -18.7320  -35.4950 O   0  0  0  0  0  0  0  0  0  0  0  0
   13.3550  -16.6500  -33.4670 C   0  0  0  0  0  0  0  0  0  0  0  0
   12.7440  -15.9580  -32.2680 C   0  0  0  0  0  0  0  0  0  0  0  0
   11.5870  -15.0650  -32.6760 C   0  0  0  0  0  0  0  0  0  0  0  0
   10.9580  -14.4000  -31.4640 C   0  0  0  0  0  0  0  0  0  0  0  0
    9.7830  -13.5660  -31.8360 N   0  0  0  0  0  0  0  0  0  0  0  0
   12.6140  -17.4390  -36.7580 N   0  0  0  0  0  0  0  0  0  0  0  0
   13.2030  -17.8360  -38.0330 C   0  0  2  0  0  0  0  0  0  0  0  0
   14.6620  -17.3960  -38.1350 C   0  0  0  0  0  0  0  0  0  0  0  0
   15.0490  -16.3420  -37.6230 O   0  0  0  0  0  0  0  0  0  0  0  0
   12.4090  -17.2650  -39.2250 C   0  0  2  0  0  0  0  0  0  0  0  0
   12.5140  -15.8370  -39.2350 O   0  0  0  0  0  0  0  0  0  0  0  0
   10.9420  -17.6510  -39.1250 C   0  0  0  0  0  0  0  0  0  0  0  0
    8.2230  -29.9750  -41.7520 N   0  0  0  0  0  0  0  0  0  0  0  0
    7.3060  -30.8410  -41.0250 C   0  0  2  0  0  0  0  0  0  0  0  0
    5.8660  -30.7020  -41.5130 C   0  0  0  0  0  0  0  0  0  0  0  0
    5.0380  -31.5910  -41.2860 O   0  0  0  0  0  0  0  0  0  0  0  0
    7.3750  -30.5430  -39.5250 C   0  0  0  0  0  0  0  0  0  0  0  0
    8.7040  -30.6490  -39.0420 O   0  0  0  0  0  0  0  0  0  0  0  0
    5.5610  -29.5890  -42.1750 N   0  0  0  0  0  0  0  0  0  0  0  0
    4.2180  -29.3820  -42.6890 C   0  0  0  0  0  0  0  0  0  0  0  0
    3.8940  -27.9570  -43.0850 C   0  0  0  0  0  0  0  0  0  0  0  0
    4.7360  -27.0670  -42.9780 O   0  0  0  0  0  0  0  0  0  0  0  0
    2.6610  -27.7470  -43.5420 N   0  0  0  0  0  0  0  0  0  0  0  0
    2.2140  -26.4380  -43.9840 C   0  0  0  0  0  0  0  0  0  0  0  0
    1.7070  -26.4220  -45.4160 C   0  0  0  0  0  0  0  0  0  0  0  0
    1.6060  -27.4630  -46.0660 O   0  0  0  0  0  0  0  0  0  0  0  0
    1.3810  -25.2290  -45.9020 N   0  0  0  0  0  0  0  0  0  0  0  0
    0.9230  -25.0460  -47.2710 C   0  0  2  0  0  0  0  0  0  0  0  0
    2.0890  -25.2050  -48.2370 C   0  0  0  0  0  0  0  0  0  0  0  0
    3.2440  -25.0260  -47.8510 O   0  0  0  0  0  0  0  0  0  0  0  0
    0.3040  -23.6590  -47.4370 C   0  0  0  0  0  0  0  0  0  0  0  0
   -1.0010  -23.5090  -46.6890 C   0  0  0  0  0  0  0  0  0  0  0  0
   -1.6480  -24.5450  -46.4220 O   0  0  0  0  0  0  0  0  0  0  0  0
   -1.3810  -22.3580  -46.3770 O   0  0  0  0  0  0  0  0  0  0  0  0
    3.2310  -23.4310  -50.4410 N   0  0  0  0  0  0  0  0  0  0  0  0
    4.0080  -22.2030  -50.5140 C   0  0  2  0  0  0  0  0  0  0  0  0
    5.1790  -22.1940  -49.5370 C   0  0  0  0  0  0  0  0  0  0  0  0
    6.2120  -21.5840  -49.8110 O   0  0  0  0  0  0  0  0  0  0  0  0
    3.1120  -20.9970  -50.2420 C   0  0  0  0  0  0  0  0  0  0  0  0
    2.2050  -20.6170  -51.4060 C   0  0  0  0  0  0  0  0  0  0  0  0
    0.8800  -21.3510  -51.3910 C   0  0  0  0  0  0  0  0  0  0  0  0
    0.2920  -21.5330  -52.4820 O   0  0  0  0  0  0  0  0  0  0  0  0
    0.4260  -21.7320  -50.2900 O   0  0  0  0  0  0  0  0  0  0  0  0
    5.0170  -22.8640  -48.3980 N   0  0  0  0  0  0  0  0  0  0  0  0
    6.0640  -22.8680  -47.3820 C   0  0  2  0  0  0  0  0  0  0  0  0
    6.8420  -24.1850  -47.3260 C   0  0  0  0  0  0  0  0  0  0  0  0
    8.0220  -24.2010  -46.9700 O   0  0  0  0  0  0  0  0  0  0  0  0
    5.5230  -22.4710  -45.9840 C   0  0  2  0  0  0  0  0  0  0  0  0
    6.6800  -22.0870  -45.0640 C   0  0  0  0  0  0  0  0  0  0  0  0
    4.6670  -23.5770  -45.3780 C   0  0  0  0  0  0  0  0  0  0  0  0
    7.6100  -21.0670  -45.6780 C   0  0  0  0  0  0  0  0  0  0  0  0
    8.6880  -21.5200  -53.0820 N   0  0  0  0  0  0  0  0  0  0  0  0
    7.6690  -20.7720  -53.8140 C   0  0  2  0  0  0  0  0  0  0  0  0
    8.1980  -19.4110  -54.2500 C   0  0  0  0  0  0  0  0  0  0  0  0
    8.8360  -18.7070  -53.4700 O   0  0  0  0  0  0  0  0  0  0  0  0
    6.4380  -20.5910  -52.9210 C   0  0  0  0  0  0  0  0  0  0  0  0
    5.3360  -19.7920  -53.5430 C   0  0  0  0  0  0  0  0  0  0  0  0
    4.8760  -20.0190  -54.8230 N   0  0  0  0  0  0  0  0  0  0  0  0
    4.5770  -18.7840  -53.0470 C   0  0  0  0  0  0  0  0  0  0  0  0
    3.8930  -19.1780  -55.0930 C   0  0  0  0  0  0  0  0  0  0  0  0
    3.6920  -18.4180  -54.0300 N   0  0  0  0  0  0  0  0  0  0  0  0
   -2.2580  -19.8130  -52.5200 N   0  0  0  0  0  0  0  0  0  0  0  0
   -2.6150  -19.1010  -51.3020 C   0  0  2  0  0  0  0  0  0  0  0  0
   -1.8750  -17.7720  -51.2790 C   0  0  0  0  0  0  0  0  0  0  0  0
   -0.6440  -17.7390  -51.3310 O   0  0  0  0  0  0  0  0  0  0  0  0
   -2.2520  -19.9190  -50.0650 C   0  0  0  0  0  0  0  0  0  0  0  0
   -2.9670  -21.2470  -50.0160 C   0  0  0  0  0  0  0  0  0  0  0  0
   -4.1870  -21.3040  -49.8410 O   0  0  0  0  0  0  0  0  0  0  0  0
   -2.2100  -22.3320  -50.1590 N   0  0  0  0  0  0  0  0  0  0  0  0
   -2.6240  -16.6790  -51.2150 N   0  0  0  0  0  0  0  0  0  0  0  0
   -2.0330  -15.3490  -51.2900 C   0  0  2  0  0  0  0  0  0  0  0  0
   -1.2180  -15.0300  -50.0450 C   0  0  0  0  0  0  0  0  0  0  0  0
   -1.7070  -15.1730  -48.9240 O   0  0  0  0  0  0  0  0  0  0  0  0
   -3.1260  -14.3000  -51.4810 C   0  0  0  0  0  0  0  0  0  0  0  0
   -3.6610  -14.2150  -52.8950 C   0  0  0  0  0  0  0  0  0  0  0  0
   -5.0840  -13.1160  -53.0040 S   0  0  0  0  0  0  0  0  0  0  0  0
   -6.3270  -14.0990  -52.1740 C   0  0  0  0  0  0  0  0  0  0  0  0
    0.0220  -14.5910  -50.2460 N   0  0  0  0  0  0  0  0  0  0  0  0
    0.8860  -14.2090  -49.1310 C   0  0  2  0  0  0  0  0  0  0  0  0
    0.3640  -12.9460  -48.4680 C   0  0  0  0  0  0  0  0  0  0  0  0
    0.7860  -12.5800  -47.3780 O   0  0  0  0  0  0  0  0  0  0  0  0
    2.3390  -14.0470  -49.5810 C   0  0  0  0  0  0  0  0  0  0  0  0
    2.5610  -12.9560  -50.5780 C   0  0  0  0  0  0  0  0  0  0  0  0
    2.2330  -12.9750  -51.9020 C   0  0  0  0  0  0  0  0  0  0  0  0
    3.1940  -11.6920  -50.3410 C   0  0  0  0  0  0  0  0  0  0  0  0
    2.6070  -11.7970  -52.5000 N   0  0  0  0  0  0  0  0  0  0  0  0
    3.2010  -10.9920  -51.5630 C   0  0  0  0  0  0  0  0  0  0  0  0
    3.7490  -11.0810  -49.2120 C   0  0  0  0  0  0  0  0  0  0  0  0
    3.7400   -9.7130  -51.6890 C   0  0  0  0  0  0  0  0  0  0  0  0
    4.2830   -9.8130  -49.3380 C   0  0  0  0  0  0  0  0  0  0  0  0
    4.2750   -9.1420  -50.5660 C   0  0  0  0  0  0  0  0  0  0  0  0
   -0.5770  -12.2960  -49.1390 N   0  0  0  0  0  0  0  0  0  0  0  0
   -1.3050  -11.1660  -48.5760 C   0  0  2  0  0  0  0  0  0  0  0  0
   -2.0740  -11.5220  -47.3140 C   0  0  0  0  0  0  0  0  0  0  0  0
   -2.4340  -10.6370  -46.5400 O   0  0  0  0  0  0  0  0  0  0  0  0
   -2.2900  -10.6040  -49.6010 C   0  0  0  0  0  0  0  0  0  0  0  0
   -1.6690   -9.6730  -50.6210 C   0  0  0  0  0  0  0  0  0  0  0  0
   -0.9910  -10.4050  -51.7750 C   0  0  0  0  0  0  0  0  0  0  0  0
   -0.4290  -11.4960  -51.6200 O   0  0  0  0  0  0  0  0  0  0  0  0
   -1.0410   -9.7920  -52.9490 N   0  0  0  0  0  0  0  0  0  0  0  0
   -2.3350  -12.8110  -47.1170 N   0  0  0  0  0  0  0  0  0  0  0  0
   -3.1540  -13.2650  -46.0090 C   0  0  0  0  0  0  0  0  0  0  0  0
   -4.6160  -13.0340  -46.3300 C   0  0  0  0  0  0  0  0  0  0  0  0
   -5.4570  -12.9540  -45.4330 O   0  0  0  0  0  0  0  0  0  0  0  0
   14.1920  -22.7660  -39.8510 N   0  0  0  0  0  0  0  0  0  0  0  0
   13.5880  -22.7410  -38.5250 C   0  0  2  0  0  0  0  0  0  0  0  0
   14.0520  -23.9580  -37.7350 C   0  0  0  0  0  0  0  0  0  0  0  0
   13.7940  -25.0960  -38.1260 O   0  0  0  0  0  0  0  0  0  0  0  0
   12.0420  -22.7070  -38.5750 C   0  0  2  0  0  0  0  0  0  0  0  0
   11.5390  -23.9630  -39.0480 O   0  0  0  0  0  0  0  0  0  0  0  0
   11.5530  -21.5820  -39.4820 C   0  0  0  0  0  0  0  0  0  0  0  0
   14.1980  -26.9330  -35.5120 N   0  0  0  0  0  0  0  0  0  0  0  0
   13.2320  -27.8730  -34.9540 C   0  0  2  0  0  0  0  0  0  0  0  0
   13.6650  -28.1870  -33.5280 C   0  0  0  0  0  0  0  0  0  0  0  0
   14.6670  -28.8710  -33.3160 O   0  0  0  0  0  0  0  0  0  0  0  0
   13.1860  -29.1490  -35.8030 C   0  0  0  0  0  0  0  0  0  0  0  0
   11.8940  -29.9310  -35.6230 C   0  0  0  0  0  0  0  0  0  0  0  0
   10.9240  -29.6660  -36.3670 O   0  0  0  0  0  0  0  0  0  0  0  0
   11.8530  -30.8190  -34.7460 O   0  0  0  0  0  0  0  0  0  0  0  0
   15.0880  -27.0260  -40.5810 N   0  0  0  0  0  0  0  0  0  0  0  0
   14.2360  -27.1930  -41.7490 C   0  0  2  0  0  0  0  0  0  0  0  0
   14.0550  -25.8520  -42.4500 C   0  0  0  0  0  0  0  0  0  0  0  0
   13.9330  -24.8170  -41.7950 O   0  0  0  0  0  0  0  0  0  0  0  0
   12.8770  -27.7540  -41.3360 C   0  0  0  0  0  0  0  0  0  0  0  0
   12.9610  -28.9110  -40.3640 C   0  0  0  0  0  0  0  0  0  0  0  0
   11.5790  -29.4050  -39.9720 C   0  0  0  0  0  0  0  0  0  0  0  0
   11.6380  -30.3890  -38.8950 N   0  0  0  0  0  0  0  0  0  0  0  0
   11.7350  -31.7010  -39.0840 C   0  0  0  0  0  0  0  0  0  0  0  0
   11.7810  -32.1930  -40.3140 N   0  0  0  0  0  0  0  0  0  0  0  0
   11.7850  -32.5210  -38.0420 N   0  0  0  0  0  0  0  0  0  0  0  0
   10.5630  -19.8410  -44.7070 N   0  0  0  0  0  0  0  0  0  0  0  0
   10.3840  -18.5240  -44.1290 C   0  0  0  0  0  0  0  0  0  0  0  0
    8.9320  -18.2660  -43.7850 C   0  0  0  0  0  0  0  0  0  0  0  0
    8.5390  -18.3170  -42.6190 O   0  0  0  0  0  0  0  0  0  0  0  0
    8.1320  -17.9880  -44.8090 N   0  0  0  0  0  0  0  0  0  0  0  0
    6.7160  -17.7350  -44.6230 C   0  0  0  0  0  0  0  0  0  0  0  0
    6.4190  -16.2750  -44.3530 C   0  0  0  0  0  0  0  0  0  0  0  0
    5.4790  -15.7090  -44.9120 O   0  0  0  0  0  0  0  0  0  0  0  0
    7.2170  -15.6640  -43.4840 N   0  0  0  0  0  0  0  0  0  0  0  0
    7.0590  -14.2500  -43.1870 C   0  0  2  0  0  0  0  0  0  0  0  0
    7.8710  -13.3970  -44.1590 C   0  0  0  0  0  0  0  0  0  0  0  0
    9.0980  -13.3230  -44.0700 O   0  0  0  0  0  0  0  0  0  0  0  0
    7.4490  -13.9520  -41.7410 C   0  0  0  0  0  0  0  0  0  0  0  0
    7.1160  -12.5330  -41.3320 C   0  0  0  0  0  0  0  0  0  0  0  0
    6.1970  -11.9170  -41.8740 O   0  0  0  0  0  0  0  0  0  0  0  0
    7.8650  -12.0030  -40.3720 N   0  0  0  0  0  0  0  0  0  0  0  0
    7.1720  -12.7590  -45.0920 N   0  0  0  0  0  0  0  0  0  0  0  0
    7.8190  -12.0120  -46.1660 C   0  0  2  0  0  0  0  0  0  0  0  0
    8.4510  -10.7150  -45.6430 C   0  0  0  0  0  0  0  0  0  0  0  0
    9.3040  -10.1180  -46.3000 O   0  0  0  0  0  0  0  0  0  0  0  0
    6.8310  -11.7590  -47.3370 C   0  0  2  0  0  0  0  0  0  0  0  0
    6.1350  -13.0680  -47.7150 C   0  0  0  0  0  0  0  0  0  0  0  0
    7.5420  -11.2050  -48.5640 C   0  0  0  0  0  0  0  0  0  0  0  0
    7.0880  -14.1490  -48.1720 C   0  0  0  0  0  0  0  0  0  0  0  0
  2  1  1  6
  3  2  1  0
  4  3  2  0
  5  2  1  0
  6  5  1  0
  5  7  1  6
  9  8  1  1
 10  9  1  0
 11 10  2  0
 12  9  1  0
 13 12  1  0
 14 13  2  0
 15 13  1  0
 16 10  1  0
 17 16  1  0
 18 17  1  0
 19 18  2  0
 17 20  1  1
 21 18  1  0
 22 21  1  0
 23 22  1  0
 24 23  2  0
 22 25  1  1
 26 25  1  0
 27 26  1  0
 28 27  1  0
 29 28  1  0
 30 23  1  0
 31 30  1  1
 32 31  1  0
 33 32  2  0
 34 31  1  0
 35 34  1  0
 34 36  1  1
 38 37  1  6
 39 38  1  0
 40 39  2  0
 41 38  1  0
 42 41  1  0
 43 39  1  0
 44 43  1  0
 45 44  1  0
 46 45  2  0
 47 45  1  0
 48 47  1  0
 49 48  1  0
 50 49  2  0
 51 49  1  0
 52 51  1  0
 53 52  1  0
 54 53  2  0
 52 55  1  1
 56 55  1  0
 57 56  2  0
 58 56  1  0
 60 59  1  1
 61 60  1  0
 62 61  2  0
 63 60  1  0
 64 63  1  0
 65 64  1  0
 66 65  2  0
 67 65  1  0
 68 61  1  0
 69 68  1  6
 70 69  1  0
 71 70  2  0
 72 69  1  0
 73 72  1  0
 72 74  1  1
 75 73  1  0
 77 76  1  1
 78 77  1  0
 79 78  2  0
 80 77  1  0
 81 80  1  0
 82 81  1  0
 83 81  2  0
 84 82  2  0
 85 84  1  0
 85 83  1  0
 87 86  1  6
 88 87  1  0
 89 88  2  0
 90 87  1  0
 91 90  1  0
 92 91  2  0
 93 91  1  0
 94 88  1  0
 95 94  1  0
 96 95  1  0
 97 96  2  0
 95 98  1  1
 99 98  1  0
100 99  1  0
101100  1  0
102 96  1  0
103102  1  0
104103  1  0
105104  2  0
103106  1  6
107106  1  0
108107  2  0
109107  1  0
110108  1  0
111110  1  0
111109  2  0
112109  1  0
113111  1  0
114112  2  0
115114  1  0
115113  2  0
116104  1  0
117116  1  0
118117  1  0
119118  2  0
117120  1  6
121120  1  0
122121  1  0
123122  2  0
124122  1  0
125118  1  0
126125  1  0
127126  1  0
128127  2  0
130129  1  6
131130  1  0
132131  2  0
133130  1  0
134133  1  0
133135  1  6
137136  1  6
138137  1  0
139138  2  0
140137  1  0
141140  1  0
142141  2  0
143141  1  0
145144  1  1
146145  1  0
147146  2  0
148145  1  0
149148  1  0
150149  1  0
151150  1  0
152151  1  0
153152  1  0
154152  2  0
156155  1  0
157156  1  0
158157  2  0
159157  1  0
160159  1  0
161160  1  0
162161  2  0
163161  1  0
164163  1  0
165164  1  0
166165  2  0
164167  1  1
168167  1  0
169168  2  0
170168  1  0
171165  1  0
172171  1  1
173172  1  0
174173  2  0
175172  1  0
176175  1  0
175177  1  6
178176  1  0
M  END
$$$$
