
     RDKit          3D

 71 68  0  0  0  0  0  0  0  0999 V2000
   15.9270   -9.8450  -27.2100 N   0  0  0  0  0  0  0  0  0  0  0  0
   16.4420  -10.6640  -26.1250 C   0  0  2  0  0  0  0  0  0  0  0  0
   16.7460  -12.0290  -26.6980 C   0  0  0  0  0  0  0  0  0  0  0  0
   15.8440  -12.7290  -27.1370 O   0  0  0  0  0  0  0  0  0  0  0  0
   15.4100  -10.7860  -25.0080 C   0  0  0  0  0  0  0  0  0  0  0  0
   15.6250   -9.7760  -23.9010 C   0  0  0  0  0  0  0  0  0  0  0  0
   16.5030   -9.9400  -23.0590 O   0  0  0  0  0  0  0  0  0  0  0  0
   14.8160   -8.7260  -23.8930 N   0  0  0  0  0  0  0  0  0  0  0  0
   17.6790  -14.7200  -25.2080 N   0  0  0  0  0  0  0  0  0  0  0  0
   17.1440  -15.7670  -24.3640 C   0  0  2  0  0  0  0  0  0  0  0  0
   15.6720  -15.9830  -24.6440 C   0  0  0  0  0  0  0  0  0  0  0  0
   15.1890  -17.1070  -24.6790 O   0  0  0  0  0  0  0  0  0  0  0  0
   17.3110  -15.3980  -22.8860 C   0  0  2  0  0  0  0  0  0  0  0  0
   16.3000  -14.4570  -22.5070 O   0  0  0  0  0  0  0  0  0  0  0  0
   18.6670  -14.7700  -22.6640 C   0  0  0  0  0  0  0  0  0  0  0  0
   14.9650  -14.8820  -24.8330 N   0  0  0  0  0  0  0  0  0  0  0  0
   13.5560  -14.8920  -24.9410 C   0  0  2  0  0  0  0  0  0  0  0  0
   13.2190  -15.5130  -26.3060 C   0  0  0  0  0  0  0  0  0  0  0  0
   13.4020  -14.8500  -27.3500 O   0  0  0  0  0  0  0  0  0  0  0  0
   13.0080  -13.4970  -24.8160 C   0  0  0  0  0  0  0  0  0  0  0  0
   11.4840  -13.4650  -24.8480 C   0  0  0  0  0  0  0  0  0  0  0  0
   10.8110  -14.4190  -25.2790 O   0  0  0  0  0  0  0  0  0  0  0  0
   10.9290  -12.3240  -24.4460 N   0  0  0  0  0  0  0  0  0  0  0  0
   12.7220  -16.7490  -26.3300 N   0  0  0  0  0  0  0  0  0  0  0  0
   12.5450  -17.4900  -27.5910 C   0  0  2  0  0  0  0  0  0  0  0  0
   11.4470  -16.8390  -28.4440 C   0  0  0  0  0  0  0  0  0  0  0  0
   11.3600  -17.0730  -29.6610 O   0  0  0  0  0  0  0  0  0  0  0  0
   12.1960  -18.9550  -27.3170 C   0  0  0  0  0  0  0  0  0  0  0  0
   10.7280  -19.1670  -26.8990 C   0  0  0  0  0  0  0  0  0  0  0  0
    9.7850  -18.6660  -27.5160 O   0  0  0  0  0  0  0  0  0  0  0  0
   10.5460  -19.9330  -25.8190 N   0  0  0  0  0  0  0  0  0  0  0  0
   14.0130  -19.3650  -32.2190 N   0  0  0  0  0  0  0  0  0  0  0  0
   14.6520  -20.3960  -31.4150 C   0  0  2  0  0  0  0  0  0  0  0  0
   13.6510  -21.2170  -30.6240 C   0  0  0  0  0  0  0  0  0  0  0  0
   12.7480  -20.6650  -30.0050 O   0  0  0  0  0  0  0  0  0  0  0  0
   15.6690  -19.7730  -30.4630 C   0  0  0  0  0  0  0  0  0  0  0  0
   16.6130  -20.7790  -29.8290 C   0  0  0  0  0  0  0  0  0  0  0  0
   17.6940  -20.0670  -29.0300 C   0  0  0  0  0  0  0  0  0  0  0  0
   17.1570  -19.1530  -28.0270 N   0  0  0  0  0  0  0  0  0  0  0  0
   16.5020  -19.5250  -26.9340 C   0  0  0  0  0  0  0  0  0  0  0  0
   16.3210  -20.8110  -26.6630 N   0  0  0  0  0  0  0  0  0  0  0  0
   16.0510  -18.6000  -26.0970 N   0  0  0  0  0  0  0  0  0  0  0  0
   13.8040  -22.5330  -30.6820 N   0  0  0  0  0  0  0  0  0  0  0  0
   12.8750  -23.4480  -30.0450 C   0  0  2  0  0  0  0  0  0  0  0  0
   12.9060  -23.3120  -28.5340 C   0  0  0  0  0  0  0  0  0  0  0  0
   13.9630  -23.1670  -27.9350 O   0  0  0  0  0  0  0  0  0  0  0  0
   13.1920  -24.8860  -30.4500 C   0  0  0  0  0  0  0  0  0  0  0  0
   12.4190  -25.3280  -31.6750 C   0  0  0  0  0  0  0  0  0  0  0  0
   11.2870  -24.8490  -31.8630 O   0  0  0  0  0  0  0  0  0  0  0  0
   12.9370  -26.1550  -32.4510 O   0  0  0  0  0  0  0  0  0  0  0  0
   11.7260  -23.3640  -27.9320 N   0  0  0  0  0  0  0  0  0  0  0  0
   11.5500  -23.2840  -26.4930 C   0  0  0  0  0  0  0  0  0  0  0  0
   11.7830  -24.6050  -25.7900 C   0  0  0  0  0  0  0  0  0  0  0  0
   11.9470  -25.6350  -26.4360 O   0  0  0  0  0  0  0  0  0  0  0  0
   11.7820  -24.5900  -24.4640 N   0  0  0  0  0  0  0  0  0  0  0  0
   11.9710  -25.8230  -23.7260 C   0  0  0  0  0  0  0  0  0  0  0  0
   13.2630  -26.5130  -24.0880 C   0  0  0  0  0  0  0  0  0  0  0  0
   13.2850  -27.6800  -24.4670 O   0  0  0  0  0  0  0  0  0  0  0  0
   14.3470  -25.7570  -23.9960 N   0  0  0  0  0  0  0  0  0  0  0  0
   15.6620  -26.2350  -24.3810 C   0  0  2  0  0  0  0  0  0  0  0  0
   16.1150  -27.4400  -23.5670 C   0  0  0  0  0  0  0  0  0  0  0  0
   16.7330  -28.3460  -24.1180 O   0  0  0  0  0  0  0  0  0  0  0  0
   16.6790  -25.1130  -24.2570 C   0  0  0  0  0  0  0  0  0  0  0  0
   15.8400  -27.4410  -22.2640 N   0  0  0  0  0  0  0  0  0  0  0  0
   16.2530  -28.5540  -21.4040 C   0  0  2  0  0  0  0  0  0  0  0  0
   17.7720  -28.7800  -21.4440 C   0  0  0  0  0  0  0  0  0  0  0  0
   18.5440  -27.8690  -21.1490 O   0  0  0  0  0  0  0  0  0  0  0  0
   15.4190  -29.8320  -21.6350 C   0  0  0  0  0  0  0  0  0  0  0  0
   15.6310  -30.8930  -20.5710 C   0  0  0  0  0  0  0  0  0  0  0  0
   15.9020  -30.5780  -19.4120 O   0  0  0  0  0  0  0  0  0  0  0  0
   15.5080  -32.1560  -20.9590 N   0  0  0  0  0  0  0  0  0  0  0  0
  2  1  1  6
  3  2  1  0
  4  3  2  0
  5  2  1  0
  6  5  1  0
  7  6  2  0
  8  6  1  0
 10  9  1  6
 11 10  1  0
 12 11  2  0
 13 10  1  0
 14 13  1  0
 13 15  1  6
 16 11  1  0
 17 16  1  0
 18 17  1  0
 19 18  2  0
 17 20  1  6
 21 20  1  0
 22 21  2  0
 23 21  1  0
 24 18  1  0
 25 24  1  0
 26 25  1  0
 27 26  2  0
 25 28  1  1
 29 28  1  0
 30 29  2  0
 31 29  1  0
 33 32  1  1
 34 33  1  0
 35 34  2  0
 36 33  1  0
 37 36  1  0
 38 37  1  0
 39 38  1  0
 40 39  1  0
 41 40  1  0
 42 40  2  0
 43 34  1  0
 44 43  1  0
 45 44  1  0
 46 45  2  0
 44 47  1  1
 48 47  1  0
 49 48  2  0
 50 48  1  0
 51 45  1  0
 52 51  1  0
 53 52  1  0
 54 53  2  0
 55 53  1  0
 56 55  1  0
 57 56  1  0
 58 57  2  0
 59 57  1  0
 60 59  1  0
 61 60  1  0
 62 61  2  0
 60 63  1  1
 64 61  1  0
 65 64  1  0
 66 65  1  0
 67 66  2  0
 65 68  1  6
 69 68  1  0
 70 69  2  0
 71 69  1  0
M  END
$$$$
