
     RDKit          3D

 71 68  0  0  0  0  0  0  0  0999 V2000
   64.9210   36.9820   21.7550 N   0  0  0  0  0  0  0  0  0  0  0  0
   65.6640   37.7460   22.7430 C   0  0  2  0  0  0  0  0  0  0  0  0
   67.1320   37.8330   22.3440 C   0  0  0  0  0  0  0  0  0  0  0  0
   67.8240   36.8180   22.2680 O   0  0  0  0  0  0  0  0  0  0  0  0
   65.5240   37.1240   24.1330 C   0  0  0  0  0  0  0  0  0  0  0  0
   65.9410   38.0730   25.2310 C   0  0  0  0  0  0  0  0  0  0  0  0
   67.1210   38.1840   25.5520 O   0  0  0  0  0  0  0  0  0  0  0  0
   64.9700   38.7830   25.8000 N   0  0  0  0  0  0  0  0  0  0  0  0
   69.8860   38.7810   23.7530 N   0  0  0  0  0  0  0  0  0  0  0  0
   70.9410   38.3740   24.6710 C   0  0  2  0  0  0  0  0  0  0  0  0
   70.9850   36.8550   24.8570 C   0  0  0  0  0  0  0  0  0  0  0  0
   71.9410   36.3180   25.4170 O   0  0  0  0  0  0  0  0  0  0  0  0
   70.8280   39.0920   26.0360 C   0  0  2  0  0  0  0  0  0  0  0  0
   69.5180   38.8980   26.5790 O   0  0  0  0  0  0  0  0  0  0  0  0
   71.0760   40.5820   25.8710 C   0  0  0  0  0  0  0  0  0  0  0  0
   69.9490   36.1670   24.3800 N   0  0  0  0  0  0  0  0  0  0  0  0
   69.9170   34.7090   24.4350 C   0  0  2  0  0  0  0  0  0  0  0  0
   70.5840   34.1110   23.2060 C   0  0  0  0  0  0  0  0  0  0  0  0
   69.9860   34.0520   22.1340 O   0  0  0  0  0  0  0  0  0  0  0  0
   68.4850   34.1920   24.5680 C   0  0  0  0  0  0  0  0  0  0  0  0
   68.4200   32.6850   24.7740 C   0  0  0  0  0  0  0  0  0  0  0  0
   69.4410   32.0100   24.8260 O   0  0  0  0  0  0  0  0  0  0  0  0
   67.2120   32.1570   24.9060 N   0  0  0  0  0  0  0  0  0  0  0  0
   71.8230   33.6520   23.3680 N   0  0  0  0  0  0  0  0  0  0  0  0
   72.5800   33.1340   22.2390 C   0  0  2  0  0  0  0  0  0  0  0  0
   71.9370   31.9090   21.5980 C   0  0  0  0  0  0  0  0  0  0  0  0
   72.1890   31.6110   20.4330 O   0  0  0  0  0  0  0  0  0  0  0  0
   74.0380   32.8570   22.6290 C   0  0  0  0  0  0  0  0  0  0  0  0
   74.1890   31.6510   23.5240 C   0  0  0  0  0  0  0  0  0  0  0  0
   73.8680   30.5280   23.1350 O   0  0  0  0  0  0  0  0  0  0  0  0
   74.7090   31.8690   24.7250 N   0  0  0  0  0  0  0  0  0  0  0  0
   74.7900   34.0310   17.4040 N   0  0  0  0  0  0  0  0  0  0  0  0
   75.8300   34.7520   18.1150 C   0  0  2  0  0  0  0  0  0  0  0  0
   76.6430   33.8310   19.0240 C   0  0  0  0  0  0  0  0  0  0  0  0
   76.0780   33.0080   19.7480 O   0  0  0  0  0  0  0  0  0  0  0  0
   75.1980   35.8730   18.9390 C   0  0  0  0  0  0  0  0  0  0  0  0
   76.1980   36.8110   19.5760 C   0  0  0  0  0  0  0  0  0  0  0  0
   75.4870   37.9880   20.2150 C   0  0  0  0  0  0  0  0  0  0  0  0
   74.5310   37.5420   21.2210 N   0  0  0  0  0  0  0  0  0  0  0  0
   74.8820   37.1640   22.4390 C   0  0  0  0  0  0  0  0  0  0  0  0
   76.1630   37.1780   22.7870 N   0  0  0  0  0  0  0  0  0  0  0  0
   73.9620   36.7640   23.3040 N   0  0  0  0  0  0  0  0  0  0  0  0
   77.9650   33.9710   18.9790 N   0  0  0  0  0  0  0  0  0  0  0  0
   78.8420   33.2040   19.8590 C   0  0  2  0  0  0  0  0  0  0  0  0
   78.5560   33.4980   21.3240 C   0  0  0  0  0  0  0  0  0  0  0  0
   78.5930   34.6510   21.7610 O   0  0  0  0  0  0  0  0  0  0  0  0
   80.3100   33.4910   19.5610 C   0  0  0  0  0  0  0  0  0  0  0  0
   80.8390   32.6780   18.4020 C   0  0  0  0  0  0  0  0  0  0  0  0
   80.1820   31.6830   18.0290 O   0  0  0  0  0  0  0  0  0  0  0  0
   81.9160   33.0270   17.8710 O   0  0  0  0  0  0  0  0  0  0  0  0
   78.2670   32.4430   22.0780 N   0  0  0  0  0  0  0  0  0  0  0  0
   78.0130   32.5730   23.4950 C   0  0  0  0  0  0  0  0  0  0  0  0
   79.3000   32.5010   24.2950 C   0  0  0  0  0  0  0  0  0  0  0  0
   80.3770   32.2440   23.7450 O   0  0  0  0  0  0  0  0  0  0  0  0
   79.1770   32.7260   25.6000 N   0  0  0  0  0  0  0  0  0  0  0  0
   80.3120   32.6890   26.5040 C   0  0  0  0  0  0  0  0  0  0  0  0
   81.2420   33.8610   26.2900 C   0  0  0  0  0  0  0  0  0  0  0  0
   82.3590   33.8840   26.8060 O   0  0  0  0  0  0  0  0  0  0  0  0
   80.7820   34.8470   25.5260 N   0  0  0  0  0  0  0  0  0  0  0  0
   81.6380   35.9700   25.1540 C   0  0  2  0  0  0  0  0  0  0  0  0
   81.8660   36.9170   26.3260 C   0  0  0  0  0  0  0  0  0  0  0  0
   81.5760   38.1100   26.2370 O   0  0  0  0  0  0  0  0  0  0  0  0
   81.0580   36.7160   23.9580 C   0  0  0  0  0  0  0  0  0  0  0  0
   82.3840   36.3710   27.4240 N   0  0  0  0  0  0  0  0  0  0  0  0
   82.7500   37.1710   28.5810 C   0  0  2  0  0  0  0  0  0  0  0  0
   83.8110   38.1830   28.1800 C   0  0  0  0  0  0  0  0  0  0  0  0
   84.6010   37.9300   27.2670 O   0  0  0  0  0  0  0  0  0  0  0  0
   83.2600   36.2750   29.7160 C   0  0  0  0  0  0  0  0  0  0  0  0
   83.8260   37.0680   30.8880 C   0  0  0  0  0  0  0  0  0  0  0  0
   83.3640   38.1690   31.1940 O   0  0  0  0  0  0  0  0  0  0  0  0
   84.8390   36.5100   31.5450 N   0  0  0  0  0  0  0  0  0  0  0  0
  2  1  1  6
  3  2  1  0
  4  3  2  0
  5  2  1  0
  6  5  1  0
  7  6  2  0
  8  6  1  0
 10  9  1  6
 11 10  1  0
 12 11  2  0
 13 10  1  0
 14 13  1  0
 13 15  1  6
 16 11  1  0
 17 16  1  0
 18 17  1  0
 19 18  2  0
 17 20  1  6
 21 20  1  0
 22 21  2  0
 23 21  1  0
 24 18  1  0
 25 24  1  0
 26 25  1  0
 27 26  2  0
 25 28  1  1
 29 28  1  0
 30 29  2  0
 31 29  1  0
 33 32  1  1
 34 33  1  0
 35 34  2  0
 36 33  1  0
 37 36  1  0
 38 37  1  0
 39 38  1  0
 40 39  1  0
 41 40  1  0
 42 40  2  0
 43 34  1  0
 44 43  1  0
 45 44  1  0
 46 45  2  0
 44 47  1  6
 48 47  1  0
 49 48  2  0
 50 48  1  0
 51 45  1  0
 52 51  1  0
 53 52  1  0
 54 53  2  0
 55 53  1  0
 56 55  1  0
 57 56  1  0
 58 57  2  0
 59 57  1  0
 60 59  1  0
 61 60  1  0
 62 61  2  0
 60 63  1  6
 64 61  1  0
 65 64  1  0
 66 65  1  0
 67 66  2  0
 65 68  1  1
 69 68  1  0
 70 69  2  0
 71 69  1  0
M  END
$$$$
