
     RDKit          3D

182177  0  0  0  0  0  0  0  0999 V2000
   68.9450   27.6800    3.7270 N   0  0  0  0  0  0  0  0  0  0  0  0
   69.6770   27.9500    4.9570 C   0  0  2  0  0  0  0  0  0  0  0  0
   70.6370   29.1220    4.7890 C   0  0  0  0  0  0  0  0  0  0  0  0
   70.9550   29.5170    3.6630 O   0  0  0  0  0  0  0  0  0  0  0  0
   70.4600   26.7240    5.4410 C   0  0  2  0  0  0  0  0  0  0  0  0
   71.4380   26.3700    4.4610 O   0  0  0  0  0  0  0  0  0  0  0  0
   69.5320   25.5530    5.6560 C   0  0  0  0  0  0  0  0  0  0  0  0
   71.8230   33.6520   23.3680 N   0  0  0  0  0  0  0  0  0  0  0  0
   72.5800   33.1340   22.2390 C   0  0  2  0  0  0  0  0  0  0  0  0
   71.9370   31.9090   21.5980 C   0  0  0  0  0  0  0  0  0  0  0  0
   72.1890   31.6110   20.4330 O   0  0  0  0  0  0  0  0  0  0  0  0
   74.0380   32.8570   22.6290 C   0  0  0  0  0  0  0  0  0  0  0  0
   74.1890   31.6510   23.5240 C   0  0  0  0  0  0  0  0  0  0  0  0
   73.8680   30.5280   23.1350 O   0  0  0  0  0  0  0  0  0  0  0  0
   74.7090   31.8690   24.7250 N   0  0  0  0  0  0  0  0  0  0  0  0
   71.0990   31.2110   22.3600 N   0  0  0  0  0  0  0  0  0  0  0  0
   70.3590   30.0600   21.8430 C   0  0  2  0  0  0  0  0  0  0  0  0
   69.2930   30.4630   20.8250 C   0  0  0  0  0  0  0  0  0  0  0  0
   68.7380   29.6110   20.1320 O   0  0  0  0  0  0  0  0  0  0  0  0
   69.7170   29.2840   22.9810 C   0  0  0  0  0  0  0  0  0  0  0  0
   68.9970   31.7570   20.7550 N   0  0  0  0  0  0  0  0  0  0  0  0
   67.9400   32.2460   19.8820 C   0  0  2  0  0  0  0  0  0  0  0  0
   68.4880   32.7200   18.5380 C   0  0  0  0  0  0  0  0  0  0  0  0
   69.4930   33.4350   18.4670 O   0  0  0  0  0  0  0  0  0  0  0  0
   67.1630   33.3880   20.5430 C   0  0  0  0  0  0  0  0  0  0  0  0
   66.3860   33.0100   21.7910 C   0  0  0  0  0  0  0  0  0  0  0  0
   65.4960   31.8020   21.5740 C   0  0  0  0  0  0  0  0  0  0  0  0
   64.7170   31.4640   22.8440 C   0  0  0  0  0  0  0  0  0  0  0  0
   63.9770   30.1780   22.7270 N   0  0  0  0  0  0  0  0  0  0  0  0
   67.8070   32.3200   17.4700 N   0  0  0  0  0  0  0  0  0  0  0  0
   68.2160   32.6850   16.1310 C   0  0  2  0  0  0  0  0  0  0  0  0
   68.0100   34.1770   15.9100 C   0  0  0  0  0  0  0  0  0  0  0  0
   67.0980   34.7770   16.4770 O   0  0  0  0  0  0  0  0  0  0  0  0
   67.4220   31.8810   15.0960 C   0  0  2  0  0  0  0  0  0  0  0  0
   67.3200   30.5240   15.5400 O   0  0  0  0  0  0  0  0  0  0  0  0
   68.1160   31.9170   13.7460 C   0  0  0  0  0  0  0  0  0  0  0  0
   80.7390   26.8930   12.9780 N   0  0  0  0  0  0  0  0  0  0  0  0
   81.6650   26.1390   13.8150 C   0  0  2  0  0  0  0  0  0  0  0  0
   81.5160   24.6400   13.6270 C   0  0  0  0  0  0  0  0  0  0  0  0
   82.3670   23.8730   14.0640 O   0  0  0  0  0  0  0  0  0  0  0  0
   81.4520   26.4790   15.2870 C   0  0  0  0  0  0  0  0  0  0  0  0
   81.5910   27.8710   15.5120 O   0  0  0  0  0  0  0  0  0  0  0  0
   80.4290   24.2150   12.9940 N   0  0  0  0  0  0  0  0  0  0  0  0
   80.1700   22.7960   12.8410 C   0  0  0  0  0  0  0  0  0  0  0  0
   78.7350   22.5340   12.4490 C   0  0  0  0  0  0  0  0  0  0  0  0
   77.9340   23.4630   12.3640 O   0  0  0  0  0  0  0  0  0  0  0  0
   78.4040   21.2710   12.2110 N   0  0  0  0  0  0  0  0  0  0  0  0
   77.0640   20.9080   11.7830 C   0  0  0  0  0  0  0  0  0  0  0  0
   77.0400   20.2610   10.4140 C   0  0  0  0  0  0  0  0  0  0  0  0
   78.0670   20.1930    9.7380 O   0  0  0  0  0  0  0  0  0  0  0  0
   75.8740   19.7780   10.0000 N   0  0  0  0  0  0  0  0  0  0  0  0
   75.7440   19.1410    8.6890 C   0  0  2  0  0  0  0  0  0  0  0  0
   76.0280   20.1490    7.5640 C   0  0  0  0  0  0  0  0  0  0  0  0
   75.9630   21.3640    7.7790 O   0  0  0  0  0  0  0  0  0  0  0  0
   74.3410   18.5390    8.5050 C   0  0  0  0  0  0  0  0  0  0  0  0
   74.0240   17.4290    9.5090 C   0  0  0  0  0  0  0  0  0  0  0  0
   74.9660   16.7970   10.0480 O   0  0  0  0  0  0  0  0  0  0  0  0
   72.8130   17.1850    9.7390 O   0  0  0  0  0  0  0  0  0  0  0  0
   76.3380   19.6580    6.3700 N   0  0  0  0  0  0  0  0  0  0  0  0
   76.6360   20.5650    5.2680 C   0  0  2  0  0  0  0  0  0  0  0  0
   75.4640   21.5100    4.9860 C   0  0  0  0  0  0  0  0  0  0  0  0
   75.6660   22.6500    4.5610 O   0  0  0  0  0  0  0  0  0  0  0  0
   77.0410   19.8040    4.0020 C   0  0  0  0  0  0  0  0  0  0  0  0
   78.4410   19.1880    4.0620 C   0  0  0  0  0  0  0  0  0  0  0  0
   78.6790   18.2840    2.8730 C   0  0  0  0  0  0  0  0  0  0  0  0
   79.4970   20.2710    4.1400 C   0  0  0  0  0  0  0  0  0  0  0  0
   74.2480   21.0460    5.2590 N   0  0  0  0  0  0  0  0  0  0  0  0
   73.0550   21.8510    5.0290 C   0  0  2  0  0  0  0  0  0  0  0  0
   73.0640   23.1530    5.8270 C   0  0  0  0  0  0  0  0  0  0  0  0
   72.4300   24.1340    5.4350 O   0  0  0  0  0  0  0  0  0  0  0  0
   71.7900   21.0500    5.3400 C   0  0  0  0  0  0  0  0  0  0  0  0
   71.4910   19.9290    4.3400 C   0  0  0  0  0  0  0  0  0  0  0  0
   72.3020   18.6660    4.5880 C   0  0  0  0  0  0  0  0  0  0  0  0
   72.9200   18.5500    5.6680 O   0  0  0  0  0  0  0  0  0  0  0  0
   72.3220   17.7820    3.7010 O   0  0  0  0  0  0  0  0  0  0  0  0
   73.7980   23.1620    6.9370 N   0  0  0  0  0  0  0  0  0  0  0  0
   73.8050   24.3190    7.8310 C   0  0  2  0  0  0  0  0  0  0  0  0
   75.1630   25.0610    7.8050 C   0  0  0  0  0  0  0  0  0  0  0  0
   75.2150   26.2850    7.9600 O   0  0  0  0  0  0  0  0  0  0  0  0
   73.3050   23.9320    9.2750 C   0  0  2  0  0  0  0  0  0  0  0  0
   72.6460   25.1210    9.9710 C   0  0  0  0  0  0  0  0  0  0  0  0
   74.4220   23.3290   10.1250 C   0  0  0  0  0  0  0  0  0  0  0  0
   73.6170   26.0070   10.7260 C   0  0  0  0  0  0  0  0  0  0  0  0
   72.4090   26.2840    1.7310 N   0  0  0  0  0  0  0  0  0  0  0  0
   71.7590   25.1290    1.1180 C   0  0  2  0  0  0  0  0  0  0  0  0
   70.4170   25.5020    0.5100 C   0  0  0  0  0  0  0  0  0  0  0  0
   69.5660   26.0870    1.1790 O   0  0  0  0  0  0  0  0  0  0  0  0
   71.5820   24.0130    2.1510 C   0  0  0  0  0  0  0  0  0  0  0  0
   70.7150   22.8840    1.6890 C   0  0  0  0  0  0  0  0  0  0  0  0
   71.0760   22.0370    0.6640 N   0  0  0  0  0  0  0  0  0  0  0  0
   69.5080   22.4540    2.1260 C   0  0  0  0  0  0  0  0  0  0  0  0
   70.1260   21.1370    0.4850 C   0  0  0  0  0  0  0  0  0  0  0  0
   69.1630   21.3680    1.3610 N   0  0  0  0  0  0  0  0  0  0  0  0
   70.4950   15.4560    3.9160 N   0  0  0  0  0  0  0  0  0  0  0  0
   69.7580   15.2450    5.1580 C   0  0  2  0  0  0  0  0  0  0  0  0
   68.4370   15.9890    5.1060 C   0  0  0  0  0  0  0  0  0  0  0  0
   68.4050   17.1900    4.8380 O   0  0  0  0  0  0  0  0  0  0  0  0
   70.5560   15.7000    6.3820 C   0  0  0  0  0  0  0  0  0  0  0  0
   71.8070   14.8760    6.6100 C   0  0  0  0  0  0  0  0  0  0  0  0
   71.7380   13.6780    6.9060 O   0  0  0  0  0  0  0  0  0  0  0  0
   72.9610   15.5200    6.4940 N   0  0  0  0  0  0  0  0  0  0  0  0
   67.3470   15.2710    5.3620 N   0  0  0  0  0  0  0  0  0  0  0  0
   66.0090   15.8430    5.2570 C   0  0  2  0  0  0  0  0  0  0  0  0
   65.7230   16.8560    6.3630 C   0  0  0  0  0  0  0  0  0  0  0  0
   65.9140   16.5700    7.5460 O   0  0  0  0  0  0  0  0  0  0  0  0
   64.9500   14.7360    5.2460 C   0  0  0  0  0  0  0  0  0  0  0  0
   64.9170   13.9230    3.9590 C   0  0  0  0  0  0  0  0  0  0  0  0
   63.7150   12.5750    3.9770 S   0  0  0  0  0  0  0  0  0  0  0  0
   64.3950   11.5150    5.2500 C   0  0  0  0  0  0  0  0  0  0  0  0
   65.2670   18.0400    5.9650 N   0  0  0  0  0  0  0  0  0  0  0  0
   64.8990   19.0900    6.9090 C   0  0  2  0  0  0  0  0  0  0  0  0
   63.5880   18.7860    7.6300 C   0  0  0  0  0  0  0  0  0  0  0  0
   63.3000   19.3760    8.6690 O   0  0  0  0  0  0  0  0  0  0  0  0
   64.7960   20.4440    6.1990 C   0  0  0  0  0  0  0  0  0  0  0  0
   63.7540   20.4920    5.1120 C   0  0  0  0  0  0  0  0  0  0  0  0
   63.9490   20.2730    3.7780 C   0  0  0  0  0  0  0  0  0  0  0  0
   62.3540   20.7780    5.2680 C   0  0  0  0  0  0  0  0  0  0  0  0
   62.7640   20.4030    3.0980 N   0  0  0  0  0  0  0  0  0  0  0  0
   61.7700   20.7120    3.9890 C   0  0  0  0  0  0  0  0  0  0  0  0
   61.5410   21.0840    6.3650 C   0  0  0  0  0  0  0  0  0  0  0  0
   60.4130   20.9410    3.7770 C   0  0  0  0  0  0  0  0  0  0  0  0
   60.1930   21.3080    6.1510 C   0  0  0  0  0  0  0  0  0  0  0  0
   59.6440   21.2370    4.8700 C   0  0  0  0  0  0  0  0  0  0  0  0
   62.7950   17.8740    7.0700 N   0  0  0  0  0  0  0  0  0  0  0  0
   61.5110   17.5020    7.6570 C   0  0  2  0  0  0  0  0  0  0  0  0
   61.6970   16.9120    9.0480 C   0  0  0  0  0  0  0  0  0  0  0  0
   60.8860   17.1330    9.9480 O   0  0  0  0  0  0  0  0  0  0  0  0
   60.7850   16.4860    6.7740 C   0  0  0  0  0  0  0  0  0  0  0  0
   60.1610   17.0560    5.5170 C   0  0  0  0  0  0  0  0  0  0  0  0
   61.0550   16.9150    4.3000 C   0  0  0  0  0  0  0  0  0  0  0  0
   62.2190   17.3210    4.3130 O   0  0  0  0  0  0  0  0  0  0  0  0
   60.5120   16.3300    3.2350 N   0  0  0  0  0  0  0  0  0  0  0  0
   62.7720   16.1520    9.2130 N   0  0  0  0  0  0  0  0  0  0  0  0
   63.0630   15.5020   10.4760 C   0  0  0  0  0  0  0  0  0  0  0  0
   64.3270   14.6770   10.3760 C   0  0  0  0  0  0  0  0  0  0  0  0
   65.3250   15.1170    9.8000 O   0  0  0  0  0  0  0  0  0  0  0  0
   73.7450   33.4010   14.2040 N   0  0  0  0  0  0  0  0  0  0  0  0
   73.8250   32.8460   15.5420 C   0  0  2  0  0  0  0  0  0  0  0  0
   75.0180   33.4810   16.2200 C   0  0  0  0  0  0  0  0  0  0  0  0
   76.1260   33.4840   15.6690 O   0  0  0  0  0  0  0  0  0  0  0  0
   74.0230   31.3330   15.5180 C   0  0  2  0  0  0  0  0  0  0  0  0
   73.0120   30.7380   14.7010 O   0  0  0  0  0  0  0  0  0  0  0  0
   73.9320   30.7590   16.9260 C   0  0  0  0  0  0  0  0  0  0  0  0
   77.6790   34.0300   13.2130 N   0  0  0  0  0  0  0  0  0  0  0  0
   77.9370   33.0110   12.2080 C   0  0  2  0  0  0  0  0  0  0  0  0
   76.6440   32.6620   11.5050 C   0  0  0  0  0  0  0  0  0  0  0  0
   75.6010   32.5720   12.1410 O   0  0  0  0  0  0  0  0  0  0  0  0
   78.4970   31.7570   12.8520 C   0  0  0  0  0  0  0  0  0  0  0  0
   79.6520   31.9990   13.7920 C   0  0  0  0  0  0  0  0  0  0  0  0
   80.2330   30.6950   14.2670 C   0  0  0  0  0  0  0  0  0  0  0  0
   81.1150   30.9160   15.3990 N   0  0  0  0  0  0  0  0  0  0  0  0
   82.4020   31.2050   15.2890 C   0  0  0  0  0  0  0  0  0  0  0  0
   82.9620   31.2960   14.0940 N   0  0  0  0  0  0  0  0  0  0  0  0
   83.1340   31.4010   16.3760 N   0  0  0  0  0  0  0  0  0  0  0  0
   73.4590   30.9860    9.7170 N   0  0  0  0  0  0  0  0  0  0  0  0
   72.6130   29.8480   10.0310 C   0  0  0  0  0  0  0  0  0  0  0  0
   72.5900   29.5050   11.5090 C   0  0  0  0  0  0  0  0  0  0  0  0
   73.6410   29.4890   12.1600 O   0  0  0  0  0  0  0  0  0  0  0  0
   71.4050   29.2230   12.0490 N   0  0  0  0  0  0  0  0  0  0  0  0
   70.1760   29.2020   11.2800 C   0  0  0  0  0  0  0  0  0  0  0  0
   69.9300   27.8550   10.6290 C   0  0  0  0  0  0  0  0  0  0  0  0
   70.5190   27.5470    9.5930 O   0  0  0  0  0  0  0  0  0  0  0  0
   69.0560   27.0510   11.2310 N   0  0  0  0  0  0  0  0  0  0  0  0
   68.7760   25.7250   10.7110 C   0  0  0  0  0  0  0  0  0  0  0  0
   67.3290   25.2810   10.8260 C   0  0  0  0  0  0  0  0  0  0  0  0
   66.9730   24.1960   10.3730 O   0  0  0  0  0  0  0  0  0  0  0  0
   66.4930   26.1150   11.4320 N   0  0  0  0  0  0  0  0  0  0  0  0
   65.0880   25.7670   11.6150 C   0  0  2  0  0  0  0  0  0  0  0  0
   64.1670   26.4710   10.6080 C   0  0  0  0  0  0  0  0  0  0  0  0
   63.9590   27.6830   10.6890 O   0  0  0  0  0  0  0  0  0  0  0  0
   64.6530   26.0690   13.0520 C   0  0  0  0  0  0  0  0  0  0  0  0
   63.2160   25.6710   13.3210 C   0  0  0  0  0  0  0  0  0  0  0  0
   62.6770   24.7640   12.6810 O   0  0  0  0  0  0  0  0  0  0  0  0
   62.5810   26.3580   14.2650 N   0  0  0  0  0  0  0  0  0  0  0  0
   63.6060   25.7000    9.6760 N   0  0  0  0  0  0  0  0  0  0  0  0
   62.8260   26.2440    8.5590 C   0  0  2  0  0  0  0  0  0  0  0  0
   61.6240   27.0670    9.0150 C   0  0  0  0  0  0  0  0  0  0  0  0
   61.1660   27.9980    8.3240 O   0  0  0  0  0  0  0  0  0  0  0  0
   62.3470   25.1210    7.6360 C   0  0  2  0  0  0  0  0  0  0  0  0
   63.4980   24.1620    7.3580 C   0  0  0  0  0  0  0  0  0  0  0  0
   61.8400   25.6830    6.3310 C   0  0  0  0  0  0  0  0  0  0  0  0
   64.7080   24.8440    6.7630 C   0  0  0  0  0  0  0  0  0  0  0  0
  2  1  1  6
  3  2  1  0
  4  3  2  0
  5  2  1  0
  6  5  1  0
  5  7  1  6
  9  8  1  1
 10  9  1  0
 11 10  2  0
 12  9  1  0
 13 12  1  0
 14 13  2  0
 15 13  1  0
 16 10  1  0
 17 16  1  0
 18 17  1  0
 19 18  2  0
 17 20  1  1
 21 18  1  0
 22 21  1  0
 23 22  1  0
 24 23  2  0
 22 25  1  1
 26 25  1  0
 27 26  1  0
 28 27  1  0
 29 28  1  0
 30 23  1  0
 31 30  1  1
 32 31  1  0
 33 32  2  0
 34 31  1  0
 35 34  1  0
 34 36  1  6
 38 37  1  6
 39 38  1  0
 40 39  2  0
 41 38  1  0
 42 41  1  0
 43 39  1  0
 44 43  1  0
 45 44  1  0
 46 45  2  0
 47 45  1  0
 48 47  1  0
 49 48  1  0
 50 49  2  0
 51 49  1  0
 52 51  1  0
 53 52  1  0
 54 53  2  0
 52 55  1  6
 56 55  1  0
 57 56  2  0
 58 56  1  0
 59 53  1  0
 60 59  1  0
 61 60  1  0
 62 61  2  0
 60 63  1  6
 64 63  1  0
 65 64  1  0
 66 64  1  0
 67 61  1  0
 68 67  1  0
 69 68  1  0
 70 69  2  0
 68 71  1  1
 72 71  1  0
 73 72  1  0
 74 73  2  0
 75 73  1  0
 76 69  1  0
 77 76  1  6
 78 77  1  0
 79 78  2  0
 80 77  1  0
 81 80  1  0
 80 82  1  1
 83 81  1  0
 85 84  1  1
 86 85  1  0
 87 86  2  0
 88 85  1  0
 89 88  1  0
 90 89  1  0
 91 89  2  0
 92 90  2  0
 93 92  1  0
 93 91  1  0
 95 94  1  6
 96 95  1  0
 97 96  2  0
 98 95  1  0
 99 98  1  0
100 99  2  0
101 99  1  0
102 96  1  0
103102  1  0
104103  1  0
105104  2  0
103106  1  1
107106  1  0
108107  1  0
109108  1  0
110104  1  0
111110  1  0
112111  1  0
113112  2  0
111114  1  6
115114  1  0
116115  2  0
117115  1  0
118116  1  0
119118  1  0
119117  2  0
120117  1  0
121119  1  0
122120  2  0
123121  2  0
123122  1  0
124112  1  0
125124  1  0
126125  1  0
127126  2  0
125128  1  6
129128  1  0
130129  1  0
131130  2  0
132130  1  0
133126  1  0
134133  1  0
135134  1  0
136135  2  0
138137  1  6
139138  1  0
140139  2  0
141138  1  0
142141  1  0
141143  1  1
145144  1  1
146145  1  0
147146  2  0
148145  1  0
149148  1  0
150149  1  0
151150  1  0
152151  1  0
153152  1  0
154152  2  0
156155  1  0
157156  1  0
158157  2  0
159157  1  0
160159  1  0
161160  1  0
162161  2  0
163161  1  0
164163  1  0
165164  1  0
166165  2  0
167165  1  0
168167  1  0
169168  1  0
170169  2  0
168171  1  1
172171  1  0
173172  2  0
174172  1  0
175169  1  0
176175  1  1
177176  1  0
178177  2  0
179176  1  0
180179  1  0
179181  1  6
182180  1  0
M  END
$$$$
