
     RDKit          3D

115111  0  0  0  0  0  0  0  0999 V2000
   -2.1200  -16.7740   15.3500 N   0  0  0  0  0  0  0  0  0  0  0  0
   -3.2460  -15.9060   15.6730 C   0  0  2  0  0  0  0  0  0  0  0  0
   -4.5320  -16.5010   15.1020 C   0  0  0  0  0  0  0  0  0  0  0  0
   -4.5680  -16.9310   13.9510 O   0  0  0  0  0  0  0  0  0  0  0  0
   -3.0680  -14.4850   15.0710 C   0  0  2  0  0  0  0  0  0  0  0  0
   -1.9170  -13.8530   15.6370 O   0  0  0  0  0  0  0  0  0  0  0  0
   -4.2970  -13.6170   15.3460 C   0  0  0  0  0  0  0  0  0  0  0  0
   -8.0670  -15.8270   13.5800 N   0  0  0  0  0  0  0  0  0  0  0  0
   -8.9940  -14.8380   13.0160 C   0  0  2  0  0  0  0  0  0  0  0  0
  -10.2390  -14.7800   13.9010 C   0  0  0  0  0  0  0  0  0  0  0  0
  -10.6550  -15.7980   14.4400 O   0  0  0  0  0  0  0  0  0  0  0  0
   -9.3910  -15.2050   11.5820 C   0  0  0  0  0  0  0  0  0  0  0  0
   -8.3990  -14.6930   10.5390 C   0  0  0  0  0  0  0  0  0  0  0  0
   -7.2060  -14.4750   10.8670 O   0  0  0  0  0  0  0  0  0  0  0  0
   -8.8210  -14.5100    9.3760 O   0  0  0  0  0  0  0  0  0  0  0  0
   -3.5560  -18.1550   11.4870 N   0  0  0  0  0  0  0  0  0  0  0  0
   -2.4080  -17.6220   10.7570 C   0  0  2  0  0  0  0  0  0  0  0  0
   -1.2210  -17.4850   11.6970 C   0  0  0  0  0  0  0  0  0  0  0  0
   -1.4080  -17.3810   12.9040 O   0  0  0  0  0  0  0  0  0  0  0  0
   -2.7340  -16.2390   10.1970 C   0  0  0  0  0  0  0  0  0  0  0  0
   -4.0070  -16.1470    9.4030 C   0  0  0  0  0  0  0  0  0  0  0  0
   -4.2190  -14.7100    9.0010 C   0  0  0  0  0  0  0  0  0  0  0  0
   -5.5200  -14.4990    8.3830 N   0  0  0  0  0  0  0  0  0  0  0  0
   -5.7640  -14.6660    7.0920 C   0  0  0  0  0  0  0  0  0  0  0  0
   -4.7910  -15.0530    6.2690 N   0  0  0  0  0  0  0  0  0  0  0  0
   -6.9850  -14.4460    6.6280 N   0  0  0  0  0  0  0  0  0  0  0  0
    1.3540  -15.7850   13.9780 N   0  0  0  0  0  0  0  0  0  0  0  0
    1.0550  -14.6730   14.8900 C   0  0  2  0  0  0  0  0  0  0  0  0
    1.0040  -13.2540   14.2960 C   0  0  0  0  0  0  0  0  0  0  0  0
    1.8890  -12.8430   13.5470 O   0  0  0  0  0  0  0  0  0  0  0  0
    2.0250  -14.6850   16.0710 C   0  0  0  0  0  0  0  0  0  0  0  0
    1.8520  -13.5230   16.8660 O   0  0  0  0  0  0  0  0  0  0  0  0
   -0.0490  -12.5190   14.6460 N   0  0  0  0  0  0  0  0  0  0  0  0
   -0.1480  -11.1060   14.3280 C   0  0  0  0  0  0  0  0  0  0  0  0
    0.5100  -10.2540   15.4010 C   0  0  0  0  0  0  0  0  0  0  0  0
    0.5420   -9.0250   15.3030 O   0  0  0  0  0  0  0  0  0  0  0  0
    1.0330  -10.9110   16.4330 N   0  0  0  0  0  0  0  0  0  0  0  0
    1.7230  -10.2180   17.5060 C   0  0  0  0  0  0  0  0  0  0  0  0
    3.1780   -9.9060   17.1820 C   0  0  0  0  0  0  0  0  0  0  0  0
    3.5150   -9.5450   16.0540 O   0  0  0  0  0  0  0  0  0  0  0  0
    4.0410  -10.0590   18.1800 N   0  0  0  0  0  0  0  0  0  0  0  0
    5.4430   -9.6750   18.0610 C   0  0  2  0  0  0  0  0  0  0  0  0
    6.3360  -10.4520   19.0400 C   0  0  0  0  0  0  0  0  0  0  0  0
    5.9770  -11.5510   19.4740 O   0  0  0  0  0  0  0  0  0  0  0  0
    5.5850   -8.1640   18.2570 C   0  0  0  0  0  0  0  0  0  0  0  0
    4.8440   -7.6620   19.4810 C   0  0  0  0  0  0  0  0  0  0  0  0
    5.0700   -8.2020   20.5900 O   0  0  0  0  0  0  0  0  0  0  0  0
    4.0270   -6.7260   19.3290 O   0  0  0  0  0  0  0  0  0  0  0  0
    7.4910   -9.8840   19.3840 N   0  0  0  0  0  0  0  0  0  0  0  0
    8.4430  -10.5520   20.2720 C   0  0  2  0  0  0  0  0  0  0  0  0
    7.8590  -10.8300   21.6520 C   0  0  0  0  0  0  0  0  0  0  0  0
    8.1730  -11.8470   22.2710 O   0  0  0  0  0  0  0  0  0  0  0  0
    9.7240   -9.7300   20.4150 C   0  0  0  0  0  0  0  0  0  0  0  0
   10.4850   -9.5090   19.1170 C   0  0  0  0  0  0  0  0  0  0  0  0
   11.5510  -10.8860   18.6340 S   0  0  0  0  0  0  0  0  0  0  0  0
   10.4800  -11.7740   17.5200 C   0  0  0  0  0  0  0  0  0  0  0  0
    7.0140   -9.9240   22.1330 N   0  0  0  0  0  0  0  0  0  0  0  0
    6.3710  -10.1050   23.4260 C   0  0  2  0  0  0  0  0  0  0  0  0
    5.6090  -11.4220   23.4860 C   0  0  0  0  0  0  0  0  0  0  0  0
    5.7650  -12.1900   24.4390 O   0  0  0  0  0  0  0  0  0  0  0  0
    5.4580   -8.9240   23.7470 C   0  0  0  0  0  0  0  0  0  0  0  0
    6.2170   -7.6200   23.9010 C   0  0  0  0  0  0  0  0  0  0  0  0
    5.3100   -6.4750   24.2950 C   0  0  0  0  0  0  0  0  0  0  0  0
    4.7490   -5.7720   23.1430 N   0  0  0  0  0  0  0  0  0  0  0  0
    3.4850   -5.8690   22.7490 C   0  0  0  0  0  0  0  0  0  0  0  0
    2.6430   -6.6490   23.4120 N   0  0  0  0  0  0  0  0  0  0  0  0
    3.0600   -5.1860   21.6930 N   0  0  0  0  0  0  0  0  0  0  0  0
    4.8130  -11.6900   22.4530 N   0  0  0  0  0  0  0  0  0  0  0  0
    4.0260  -12.9260   22.3730 C   0  0  2  0  0  0  0  0  0  0  0  0
    4.9640  -14.1300   22.4020 C   0  0  0  0  0  0  0  0  0  0  0  0
    4.7180  -15.1200   23.0890 O   0  0  0  0  0  0  0  0  0  0  0  0
    3.1880  -12.9700   21.0820 C   0  0  0  0  0  0  0  0  0  0  0  0
    2.2320  -11.7860   20.9430 C   0  0  0  0  0  0  0  0  0  0  0  0
    2.6970  -10.6580   20.6700 O   0  0  0  0  0  0  0  0  0  0  0  0
    1.0050  -11.9890   21.0790 O   0  0  0  0  0  0  0  0  0  0  0  0
   -1.5010  -12.3930    7.9420 N   0  0  0  0  0  0  0  0  0  0  0  0
   -2.3940  -11.3190    7.5440 C   0  0  2  0  0  0  0  0  0  0  0  0
   -1.6530  -10.0960    7.0220 C   0  0  0  0  0  0  0  0  0  0  0  0
   -2.2290   -9.2750    6.3080 O   0  0  0  0  0  0  0  0  0  0  0  0
   -3.2700  -10.9210    8.7350 C   0  0  0  0  0  0  0  0  0  0  0  0
   -4.2520   -9.9660    8.3640 O   0  0  0  0  0  0  0  0  0  0  0  0
   -0.3780   -9.9820    7.3850 N   0  0  0  0  0  0  0  0  0  0  0  0
    0.4480   -8.8410    7.0230 C   0  0  0  0  0  0  0  0  0  0  0  0
    1.4180   -8.4610    8.1300 C   0  0  0  0  0  0  0  0  0  0  0  0
    1.5220   -9.1600    9.1400 O   0  0  0  0  0  0  0  0  0  0  0  0
    2.1330   -7.3540    7.9370 N   0  0  0  0  0  0  0  0  0  0  0  0
    3.0880   -6.8810    8.9220 C   0  0  0  0  0  0  0  0  0  0  0  0
    4.4730   -6.5490    8.3810 C   0  0  0  0  0  0  0  0  0  0  0  0
    4.7720   -6.7520    7.2010 O   0  0  0  0  0  0  0  0  0  0  0  0
    5.3200   -6.0150    9.2550 N   0  0  0  0  0  0  0  0  0  0  0  0
    6.7100   -5.7410    8.9100 C   0  0  2  0  0  0  0  0  0  0  0  0
    7.4140   -7.0410    8.5200 C   0  0  0  0  0  0  0  0  0  0  0  0
    7.0640   -8.1150    9.0220 O   0  0  0  0  0  0  0  0  0  0  0  0
    7.4270   -5.0730   10.0820 C   0  0  0  0  0  0  0  0  0  0  0  0
    6.8440   -3.7210   10.4270 C   0  0  0  0  0  0  0  0  0  0  0  0
    6.1780   -3.1180    9.5570 O   0  0  0  0  0  0  0  0  0  0  0  0
    7.0610   -3.2550   11.5640 O   0  0  0  0  0  0  0  0  0  0  0  0
    8.3890   -6.9470    7.6000 N   0  0  0  0  0  0  0  0  0  0  0  0
    9.1790   -8.0600    7.0460 C   0  0  2  0  0  0  0  0  0  0  0  0
    9.5740   -9.1540    8.0430 C   0  0  0  0  0  0  0  0  0  0  0  0
    9.4880  -10.3400    7.7180 O   0  0  0  0  0  0  0  0  0  0  0  0
   10.4340   -7.3620    6.5090 C   0  0  0  0  0  0  0  0  0  0  0  0
   10.1170   -5.8580    6.5150 C   0  0  0  0  0  0  0  0  0  0  0  0
    8.6750   -5.6950    6.8840 C   0  0  0  0  0  0  0  0  0  0  0  0
    8.0720  -10.2400   10.5800 N   0  0  0  0  0  0  0  0  0  0  0  0
    6.9640  -11.0050   11.1430 C   0  0  2  0  0  0  0  0  0  0  0  0
    6.0840  -11.6760   10.0960 C   0  0  0  0  0  0  0  0  0  0  0  0
    5.5490  -12.7670   10.3240 O   0  0  0  0  0  0  0  0  0  0  0  0
    6.1280  -10.1260   12.0740 C   0  0  0  0  0  0  0  0  0  0  0  0
    6.8800   -9.6520   13.2850 C   0  0  0  0  0  0  0  0  0  0  0  0
    7.0590  -10.4880   14.3740 C   0  0  0  0  0  0  0  0  0  0  0  0
    7.4180   -8.3750   13.3290 C   0  0  0  0  0  0  0  0  0  0  0  0
    7.7620  -10.0580   15.4870 C   0  0  0  0  0  0  0  0  0  0  0  0
    8.1180   -7.9370   14.4420 C   0  0  0  0  0  0  0  0  0  0  0  0
    8.2910   -8.7780   15.5190 C   0  0  0  0  0  0  0  0  0  0  0  0
  2  1  1  6
  3  2  1  0
  4  3  2  0
  5  2  1  0
  6  5  1  0
  5  7  1  1
  9  8  1  1
 10  9  1  0
 11 10  2  0
 12  9  1  0
 13 12  1  0
 14 13  2  0
 15 13  1  0
 17 16  1  1
 18 17  1  0
 19 18  2  0
 20 17  1  0
 21 20  1  0
 22 21  1  0
 23 22  1  0
 24 23  1  0
 25 24  1  0
 26 24  2  0
 28 27  1  6
 29 28  1  0
 30 29  2  0
 31 28  1  0
 32 31  1  0
 33 29  1  0
 34 33  1  0
 35 34  1  0
 36 35  2  0
 37 35  1  0
 38 37  1  0
 39 38  1  0
 40 39  2  0
 41 39  1  0
 42 41  1  0
 43 42  1  0
 44 43  2  0
 42 45  1  1
 46 45  1  0
 47 46  2  0
 48 46  1  0
 49 43  1  0
 50 49  1  0
 51 50  1  0
 52 51  2  0
 50 53  1  1
 54 53  1  0
 55 54  1  0
 56 55  1  0
 57 51  1  0
 58 57  1  0
 59 58  1  0
 60 59  2  0
 58 61  1  6
 62 61  1  0
 63 62  1  0
 64 63  1  0
 65 64  1  0
 66 65  1  0
 67 65  2  0
 68 59  1  0
 69 68  1  0
 70 69  1  0
 71 70  2  0
 69 72  1  6
 73 72  1  0
 74 73  2  0
 75 73  1  0
 77 76  1  1
 78 77  1  0
 79 78  2  0
 80 77  1  0
 81 80  1  0
 82 78  1  0
 83 82  1  0
 84 83  1  0
 85 84  2  0
 86 84  1  0
 87 86  1  0
 88 87  1  0
 89 88  2  0
 90 88  1  0
 91 90  1  0
 92 91  1  0
 93 92  2  0
 91 94  1  1
 95 94  1  0
 96 95  2  0
 97 95  1  0
 98 92  1  0
 99 98  1  0
 99100  1  1
101100  2  0
102 99  1  0
103102  1  0
104103  1  0
104 98  1  0
106105  1  6
107106  1  0
108107  2  0
109106  1  0
110109  1  0
111110  2  0
112110  1  0
113111  1  0
114112  2  0
115114  1  0
115113  2  0
M  END
$$$$
