
     RDKit          3D

149145  0  0  0  0  0  0  0  0999 V2000
  -10.1940  -13.1620  -47.5480 N   0  0  0  0  0  0  0  0  0  0  0  0
  -10.2430  -12.3350  -46.3470 C   0  0  2  0  0  0  0  0  0  0  0  0
  -11.4410  -11.3950  -46.3820 C   0  0  0  0  0  0  0  0  0  0  0  0
  -12.0270  -11.1640  -47.4410 O   0  0  0  0  0  0  0  0  0  0  0  0
   -8.9610  -11.4980  -46.1780 C   0  0  2  0  0  0  0  0  0  0  0  0
   -8.8460  -10.5670  -47.2620 O   0  0  0  0  0  0  0  0  0  0  0  0
   -7.7380  -12.3980  -46.1530 C   0  0  0  0  0  0  0  0  0  0  0  0
   -9.9660   -9.8270  -29.2500 N   0  0  0  0  0  0  0  0  0  0  0  0
   -8.9220  -10.4700  -30.0340 C   0  0  2  0  0  0  0  0  0  0  0  0
   -9.5490  -11.4650  -31.0070 C   0  0  0  0  0  0  0  0  0  0  0  0
   -9.0320  -11.6900  -32.1010 O   0  0  0  0  0  0  0  0  0  0  0  0
   -7.9260  -11.1660  -29.1240 C   0  0  0  0  0  0  0  0  0  0  0  0
  -10.6730  -12.0500  -30.6010 N   0  0  0  0  0  0  0  0  0  0  0  0
  -11.3940  -13.0180  -31.4220 C   0  0  2  0  0  0  0  0  0  0  0  0
  -12.0210  -12.3720  -32.6520 C   0  0  0  0  0  0  0  0  0  0  0  0
  -12.4600  -11.2240  -32.6050 O   0  0  0  0  0  0  0  0  0  0  0  0
  -12.4910  -13.6960  -30.6000 C   0  0  0  0  0  0  0  0  0  0  0  0
  -11.9820  -14.6030  -29.4960 C   0  0  0  0  0  0  0  0  0  0  0  0
  -11.3650  -15.8660  -30.0660 C   0  0  0  0  0  0  0  0  0  0  0  0
  -11.0030  -16.8370  -28.9600 C   0  0  0  0  0  0  0  0  0  0  0  0
  -10.5650  -18.1550  -29.4990 N   0  0  0  0  0  0  0  0  0  0  0  0
  -12.0660  -13.1220  -33.7490 N   0  0  0  0  0  0  0  0  0  0  0  0
  -12.7030  -12.6600  -34.9770 C   0  0  2  0  0  0  0  0  0  0  0  0
  -14.1830  -13.0320  -34.9860 C   0  0  0  0  0  0  0  0  0  0  0  0
  -14.5470  -14.1700  -34.6900 O   0  0  0  0  0  0  0  0  0  0  0  0
  -12.0240  -13.2570  -36.2290 C   0  0  2  0  0  0  0  0  0  0  0  0
  -10.6590  -12.8250  -36.2900 O   0  0  0  0  0  0  0  0  0  0  0  0
  -12.7440  -12.8180  -37.4960 C   0  0  0  0  0  0  0  0  0  0  0  0
   -7.3320   -1.1090  -39.1160 N   0  0  0  0  0  0  0  0  0  0  0  0
   -6.3920   -0.1780  -38.5010 C   0  0  2  0  0  0  0  0  0  0  0  0
   -4.9890   -0.3030  -39.0860 C   0  0  0  0  0  0  0  0  0  0  0  0
   -4.2190    0.6580  -39.0820 O   0  0  0  0  0  0  0  0  0  0  0  0
   -6.3490   -0.3780  -36.9850 C   0  0  0  0  0  0  0  0  0  0  0  0
   -7.6030   -0.0870  -36.3930 O   0  0  0  0  0  0  0  0  0  0  0  0
   -4.6600   -1.4890  -39.5860 N   0  0  0  0  0  0  0  0  0  0  0  0
   -3.3580   -1.7230  -40.1810 C   0  0  0  0  0  0  0  0  0  0  0  0
   -3.1960   -3.1420  -40.6850 C   0  0  0  0  0  0  0  0  0  0  0  0
   -4.1470   -3.9240  -40.6760 O   0  0  0  0  0  0  0  0  0  0  0  0
   -1.9880   -3.4740  -41.1260 N   0  0  0  0  0  0  0  0  0  0  0  0
   -1.6940   -4.8150  -41.5960 C   0  0  0  0  0  0  0  0  0  0  0  0
   -1.3050   -4.8480  -43.0590 C   0  0  0  0  0  0  0  0  0  0  0  0
   -1.3140   -3.8240  -43.7390 O   0  0  0  0  0  0  0  0  0  0  0  0
   -0.9600   -6.0340  -43.5460 N   0  0  0  0  0  0  0  0  0  0  0  0
   -0.6000   -6.2030  -44.9470 C   0  0  2  0  0  0  0  0  0  0  0  0
   -1.8270   -6.0710  -45.8410 C   0  0  0  0  0  0  0  0  0  0  0  0
   -2.9590   -6.2080  -45.3800 O   0  0  0  0  0  0  0  0  0  0  0  0
    0.0790   -7.5550  -45.1680 C   0  0  0  0  0  0  0  0  0  0  0  0
    1.3720   -7.6880  -44.3890 C   0  0  0  0  0  0  0  0  0  0  0  0
    2.0090   -6.6490  -44.1140 O   0  0  0  0  0  0  0  0  0  0  0  0
    1.7490   -8.8290  -44.0500 O   0  0  0  0  0  0  0  0  0  0  0  0
   -1.5900   -5.8100  -47.1230 N   0  0  0  0  0  0  0  0  0  0  0  0
   -2.6650   -5.5790  -48.0850 C   0  0  2  0  0  0  0  0  0  0  0  0
   -3.6480   -6.7400  -48.1990 C   0  0  0  0  0  0  0  0  0  0  0  0
   -4.7900   -6.5520  -48.6190 O   0  0  0  0  0  0  0  0  0  0  0  0
   -2.0810   -5.2600  -49.4600 C   0  0  0  0  0  0  0  0  0  0  0  0
   -1.4760   -3.8670  -49.6060 C   0  0  0  0  0  0  0  0  0  0  0  0
   -0.7040   -3.7610  -50.9060 C   0  0  0  0  0  0  0  0  0  0  0  0
   -2.5760   -2.8200  -49.5480 C   0  0  0  0  0  0  0  0  0  0  0  0
   -3.2050   -7.9350  -47.8250 N   0  0  0  0  0  0  0  0  0  0  0  0
   -4.0560   -9.1170  -47.8950 C   0  0  2  0  0  0  0  0  0  0  0  0
   -5.2620   -9.0140  -46.9650 C   0  0  0  0  0  0  0  0  0  0  0  0
   -6.3060   -9.6090  -47.2310 O   0  0  0  0  0  0  0  0  0  0  0  0
   -3.2570  -10.3860  -47.5830 C   0  0  0  0  0  0  0  0  0  0  0  0
   -2.3470  -10.8550  -48.7110 C   0  0  0  0  0  0  0  0  0  0  0  0
   -1.1060   -9.9970  -48.8630 C   0  0  0  0  0  0  0  0  0  0  0  0
   -0.7530   -9.2840  -47.8990 O   0  0  0  0  0  0  0  0  0  0  0  0
   -0.4830  -10.0350  -49.9450 O   0  0  0  0  0  0  0  0  0  0  0  0
   -5.1220   -8.2580  -45.8810 N   0  0  0  0  0  0  0  0  0  0  0  0
   -6.2030   -8.1350  -44.9070 C   0  0  2  0  0  0  0  0  0  0  0  0
   -6.8300   -6.7460  -44.8850 C   0  0  0  0  0  0  0  0  0  0  0  0
   -7.9830   -6.5870  -44.4890 O   0  0  0  0  0  0  0  0  0  0  0  0
   -5.7340   -8.4960  -43.4880 C   0  0  2  0  0  0  0  0  0  0  0  0
   -4.5570   -7.6110  -43.0810 C   0  0  0  0  0  0  0  0  0  0  0  0
   -5.3570   -9.9670  -43.4110 C   0  0  0  0  0  0  0  0  0  0  0  0
   -3.9760   -7.9600  -41.7500 C   0  0  0  0  0  0  0  0  0  0  0  0
    1.8160  -11.9010  -49.9120 N   0  0  0  0  0  0  0  0  0  0  0  0
    2.1740  -12.4880  -48.6290 C   0  0  2  0  0  0  0  0  0  0  0  0
    1.4530  -13.8150  -48.4500 C   0  0  0  0  0  0  0  0  0  0  0  0
    0.2300  -13.8850  -48.5690 O   0  0  0  0  0  0  0  0  0  0  0  0
    1.8210  -11.5440  -47.4790 C   0  0  0  0  0  0  0  0  0  0  0  0
    2.5870  -10.2390  -47.5380 C   0  0  0  0  0  0  0  0  0  0  0  0
    3.7510  -10.1720  -47.1440 O   0  0  0  0  0  0  0  0  0  0  0  0
    1.9340   -9.1900  -48.0250 N   0  0  0  0  0  0  0  0  0  0  0  0
    2.2090  -14.8690  -48.1720 N   0  0  0  0  0  0  0  0  0  0  0  0
    1.6190  -16.1930  -48.0240 C   0  0  2  0  0  0  0  0  0  0  0  0
    0.8460  -16.3370  -46.7170 C   0  0  0  0  0  0  0  0  0  0  0  0
    1.3720  -16.0680  -45.6370 O   0  0  0  0  0  0  0  0  0  0  0  0
    2.6890  -17.2770  -48.1480 C   0  0  0  0  0  0  0  0  0  0  0  0
    3.1400  -17.5130  -49.5780 C   0  0  0  0  0  0  0  0  0  0  0  0
    4.3990  -18.7930  -49.7280 S   0  0  0  0  0  0  0  0  0  0  0  0
    5.8490  -17.9100  -49.1590 C   0  0  0  0  0  0  0  0  0  0  0  0
   -0.4090  -16.7640  -46.8320 N   0  0  0  0  0  0  0  0  0  0  0  0
   -1.2790  -16.9480  -45.6760 C   0  0  2  0  0  0  0  0  0  0  0  0
   -0.8540  -18.1360  -44.8170 C   0  0  0  0  0  0  0  0  0  0  0  0
   -1.3070  -18.2870  -43.6840 O   0  0  0  0  0  0  0  0  0  0  0  0
   -2.7340  -17.1130  -46.1200 C   0  0  0  0  0  0  0  0  0  0  0  0
   -2.9660  -18.2950  -47.0090 C   0  0  0  0  0  0  0  0  0  0  0  0
   -2.9040  -18.3210  -48.3720 C   0  0  0  0  0  0  0  0  0  0  0  0
   -3.3030  -19.6240  -46.5980 C   0  0  0  0  0  0  0  0  0  0  0  0
   -3.1790  -19.5840  -48.8360 N   0  0  0  0  0  0  0  0  0  0  0  0
   -3.4290  -20.4030  -47.7660 C   0  0  0  0  0  0  0  0  0  0  0  0
   -3.5090  -20.2320  -45.3570 C   0  0  0  0  0  0  0  0  0  0  0  0
   -3.7510  -21.7580  -47.7280 C   0  0  0  0  0  0  0  0  0  0  0  0
   -3.8320  -21.5760  -45.3220 C   0  0  0  0  0  0  0  0  0  0  0  0
   -3.9480  -22.3250  -46.4990 C   0  0  0  0  0  0  0  0  0  0  0  0
    0.0230  -18.9740  -45.3600 N   0  0  0  0  0  0  0  0  0  0  0  0
    0.5620  -20.1040  -44.6150 C   0  0  2  0  0  0  0  0  0  0  0  0
    1.5260  -19.6220  -43.5350 C   0  0  0  0  0  0  0  0  0  0  0  0
    1.9510  -20.3960  -42.6790 O   0  0  0  0  0  0  0  0  0  0  0  0
    1.2760  -21.0830  -45.5500 C   0  0  0  0  0  0  0  0  0  0  0  0
    0.4040  -21.6670  -46.6530 C   0  0  0  0  0  0  0  0  0  0  0  0
    0.3200  -20.7750  -47.8770 C   0  0  0  0  0  0  0  0  0  0  0  0
    0.0200  -19.5850  -47.7770 O   0  0  0  0  0  0  0  0  0  0  0  0
    0.5870  -21.3490  -49.0450 N   0  0  0  0  0  0  0  0  0  0  0  0
    1.8680  -18.3380  -43.5840 N   0  0  0  0  0  0  0  0  0  0  0  0
    2.8000  -17.7540  -42.6380 C   0  0  0  0  0  0  0  0  0  0  0  0
    4.2370  -17.9820  -43.0610 C   0  0  0  0  0  0  0  0  0  0  0  0
    5.1740  -17.6420  -42.3370 O   0  0  0  0  0  0  0  0  0  0  0  0
  -13.8260   -7.6050  -36.8030 N   0  0  0  0  0  0  0  0  0  0  0  0
  -13.0380   -7.4970  -35.5830 C   0  0  2  0  0  0  0  0  0  0  0  0
  -13.4590   -6.2520  -34.8100 C   0  0  0  0  0  0  0  0  0  0  0  0
  -13.4330   -5.1430  -35.3430 O   0  0  0  0  0  0  0  0  0  0  0  0
  -11.5330   -7.4270  -35.8900 C   0  0  2  0  0  0  0  0  0  0  0  0
  -11.1430   -8.5860  -36.6380 O   0  0  0  0  0  0  0  0  0  0  0  0
  -10.7260   -7.3650  -34.6020 C   0  0  0  0  0  0  0  0  0  0  0  0
  -10.2220  -11.0590  -40.9390 N   0  0  0  0  0  0  0  0  0  0  0  0
   -9.6390  -12.0420  -41.8310 C   0  0  0  0  0  0  0  0  0  0  0  0
   -8.1380  -12.1460  -41.6470 C   0  0  0  0  0  0  0  0  0  0  0  0
   -7.5320  -11.3300  -40.9530 O   0  0  0  0  0  0  0  0  0  0  0  0
   -7.5380  -13.1530  -42.2720 N   0  0  0  0  0  0  0  0  0  0  0  0
   -6.1120  -13.3900  -42.1470 C   0  0  0  0  0  0  0  0  0  0  0  0
   -5.8240  -14.8160  -41.7250 C   0  0  0  0  0  0  0  0  0  0  0  0
   -5.0440  -15.5190  -42.3670 O   0  0  0  0  0  0  0  0  0  0  0  0
   -6.4510  -15.2390  -40.6330 N   0  0  0  0  0  0  0  0  0  0  0  0
   -6.3930  -16.6320  -40.2130 C   0  0  2  0  0  0  0  0  0  0  0  0
   -7.5170  -17.4090  -40.8820 C   0  0  0  0  0  0  0  0  0  0  0  0
   -8.6920  -17.2210  -40.5650 O   0  0  0  0  0  0  0  0  0  0  0  0
   -6.4840  -16.7460  -38.6920 C   0  0  0  0  0  0  0  0  0  0  0  0
   -6.5270  -18.1840  -38.2170 C   0  0  0  0  0  0  0  0  0  0  0  0
   -7.5840  -18.6940  -37.8500 O   0  0  0  0  0  0  0  0  0  0  0  0
   -5.3760  -18.8480  -38.2240 N   0  0  0  0  0  0  0  0  0  0  0  0
   -7.1460  -18.2800  -41.8140 N   0  0  0  0  0  0  0  0  0  0  0  0
   -8.1150  -18.9420  -42.6810 C   0  0  2  0  0  0  0  0  0  0  0  0
   -8.8860  -20.0500  -41.9600 C   0  0  0  0  0  0  0  0  0  0  0  0
   -9.8350  -20.6120  -42.5040 O   0  0  0  0  0  0  0  0  0  0  0  0
   -7.4350  -19.4810  -43.9590 C   0  0  2  0  0  0  0  0  0  0  0  0
   -6.3700  -18.4970  -44.4430 C   0  0  0  0  0  0  0  0  0  0  0  0
   -8.4500  -19.6960  -45.0650 C   0  0  0  0  0  0  0  0  0  0  0  0
   -6.9350  -17.1750  -44.9270 C   0  0  0  0  0  0  0  0  0  0  0  0
  2  1  1  6
  3  2  1  0
  4  3  2  0
  5  2  1  0
  6  5  1  0
  5  7  1  6
  9  8  1  0
 10  9  1  0
 11 10  2  0
  9 12  1  1
 13 10  1  0
 14 13  1  0
 15 14  1  0
 16 15  2  0
 14 17  1  1
 18 17  1  0
 19 18  1  0
 20 19  1  0
 21 20  1  0
 22 15  1  0
 23 22  1  1
 24 23  1  0
 25 24  2  0
 26 23  1  0
 27 26  1  0
 26 28  1  6
 30 29  1  6
 31 30  1  0
 32 31  2  0
 33 30  1  0
 34 33  1  0
 35 31  1  0
 36 35  1  0
 37 36  1  0
 38 37  2  0
 39 37  1  0
 40 39  1  0
 41 40  1  0
 42 41  2  0
 43 41  1  0
 44 43  1  0
 45 44  1  0
 46 45  2  0
 44 47  1  1
 48 47  1  0
 49 48  2  0
 50 48  1  0
 51 45  1  0
 52 51  1  0
 53 52  1  0
 54 53  2  0
 52 55  1  6
 56 55  1  0
 57 56  1  0
 58 56  1  0
 59 53  1  0
 60 59  1  0
 61 60  1  0
 62 61  2  0
 60 63  1  1
 64 63  1  0
 65 64  1  0
 66 65  2  0
 67 65  1  0
 68 61  1  0
 69 68  1  6
 70 69  1  0
 71 70  2  0
 72 69  1  0
 73 72  1  0
 72 74  1  6
 75 73  1  0
 77 76  1  6
 78 77  1  0
 79 78  2  0
 80 77  1  0
 81 80  1  0
 82 81  2  0
 83 81  1  0
 84 78  1  0
 85 84  1  0
 86 85  1  0
 87 86  2  0
 85 88  1  1
 89 88  1  0
 90 89  1  0
 91 90  1  0
 92 86  1  0
 93 92  1  0
 94 93  1  0
 95 94  2  0
 93 96  1  6
 97 96  1  0
 98 97  2  0
 99 97  1  0
100 98  1  0
101100  1  0
101 99  2  0
102 99  1  0
103101  1  0
104102  2  0
105104  1  0
105103  2  0
106 94  1  0
107106  1  0
108107  1  0
109108  2  0
107110  1  6
111110  1  0
112111  1  0
113112  2  0
114112  1  0
115108  1  0
116115  1  0
117116  1  0
118117  2  0
120119  1  6
121120  1  0
122121  2  0
123120  1  0
124123  1  0
123125  1  1
127126  1  0
128127  1  0
129128  2  0
130128  1  0
131130  1  0
132131  1  0
133132  2  0
134132  1  0
135134  1  0
136135  1  0
137136  2  0
135138  1  1
139138  1  0
140139  2  0
141139  1  0
142136  1  0
143142  1  1
144143  1  0
145144  2  0
146143  1  0
147146  1  0
146148  1  6
149147  1  0
M  END
$$$$
