
     RDKit          3D

137131  0  0  0  0  0  0  0  0999 V2000
   -6.2020   15.1970   53.3260 N   0  0  0  0  0  0  0  0  0  0  0  0
   -5.1560   14.2260   53.5780 C   0  0  2  0  0  0  0  0  0  0  0  0
   -3.9710   14.8940   54.2840 C   0  0  0  0  0  0  0  0  0  0  0  0
   -3.5050   14.4000   55.3090 O   0  0  0  0  0  0  0  0  0  0  0  0
   -4.7330   13.5850   52.2560 C   0  0  0  0  0  0  0  0  0  0  0  0
   -3.8510   12.3840   52.4060 C   0  0  0  0  0  0  0  0  0  0  0  0
   -4.3430   11.1160   52.6370 N   0  0  0  0  0  0  0  0  0  0  0  0
   -2.5080   12.2540   52.3240 C   0  0  0  0  0  0  0  0  0  0  0  0
   -3.3390   10.2610   52.7040 C   0  0  0  0  0  0  0  0  0  0  0  0
   -2.2130   10.9280   52.5180 N   0  0  0  0  0  0  0  0  0  0  0  0
   -7.7940   -1.9030   39.0260 N   0  0  0  0  0  0  0  0  0  0  0  0
   -6.7880   -1.2840   39.8890 C   0  0  2  0  0  0  0  0  0  0  0  0
   -7.3270   -0.0170   40.5600 C   0  0  0  0  0  0  0  0  0  0  0  0
   -6.5900    0.7100   41.2270 O   0  0  0  0  0  0  0  0  0  0  0  0
   -5.5300   -0.9740   39.0900 C   0  0  0  0  0  0  0  0  0  0  0  0
   -8.6160    0.2440   40.3720 N   0  0  0  0  0  0  0  0  0  0  0  0
   -9.2670    1.3720   41.0050 C   0  0  2  0  0  0  0  0  0  0  0  0
  -10.1050    0.8620   42.1540 C   0  0  0  0  0  0  0  0  0  0  0  0
  -10.9650    0.0030   41.9710 O   0  0  0  0  0  0  0  0  0  0  0  0
  -10.1630    2.1040   40.0130 C   0  0  0  0  0  0  0  0  0  0  0  0
   -9.4190    2.8050   38.8920 C   0  0  0  0  0  0  0  0  0  0  0  0
   -8.4170    3.8000   39.4250 C   0  0  0  0  0  0  0  0  0  0  0  0
   -7.9740    4.7540   38.3300 C   0  0  0  0  0  0  0  0  0  0  0  0
   -6.6590    5.3760   38.6400 N   0  0  0  0  0  0  0  0  0  0  0  0
   -9.8480    1.3850   43.3450 N   0  0  0  0  0  0  0  0  0  0  0  0
  -10.6240    1.0120   44.5160 C   0  0  2  0  0  0  0  0  0  0  0  0
  -12.1070    1.2780   44.2900 C   0  0  0  0  0  0  0  0  0  0  0  0
  -12.4870    2.2800   43.6920 O   0  0  0  0  0  0  0  0  0  0  0  0
  -10.1570    1.7830   45.7580 C   0  0  2  0  0  0  0  0  0  0  0  0
   -8.8770    1.2850   46.1760 O   0  0  0  0  0  0  0  0  0  0  0  0
  -11.1540    1.6160   46.8910 C   0  0  0  0  0  0  0  0  0  0  0  0
   -5.9300  -10.8150   49.4930 N   0  0  0  0  0  0  0  0  0  0  0  0
   -4.9490  -11.7500   48.9390 C   0  0  2  0  0  0  0  0  0  0  0  0
   -3.5260  -11.5270   49.4570 C   0  0  0  0  0  0  0  0  0  0  0  0
   -2.6400  -12.3480   49.2220 O   0  0  0  0  0  0  0  0  0  0  0  0
   -4.9430  -11.6590   47.4110 C   0  0  0  0  0  0  0  0  0  0  0  0
   -6.1600  -12.1340   46.8670 O   0  0  0  0  0  0  0  0  0  0  0  0
   -3.3030  -10.4250   50.1620 N   0  0  0  0  0  0  0  0  0  0  0  0
   -1.9840  -10.1290   50.6850 C   0  0  0  0  0  0  0  0  0  0  0  0
   -1.8810   -8.7010   51.1750 C   0  0  0  0  0  0  0  0  0  0  0  0
   -2.8520   -7.9460   51.1150 O   0  0  0  0  0  0  0  0  0  0  0  0
   -0.7040   -8.3320   51.6690 N   0  0  0  0  0  0  0  0  0  0  0  0
   -0.4670   -6.9750   52.1250 C   0  0  0  0  0  0  0  0  0  0  0  0
   -0.1260   -6.8650   53.5980 C   0  0  0  0  0  0  0  0  0  0  0  0
   -0.1650   -7.8440   54.3460 O   0  0  0  0  0  0  0  0  0  0  0  0
    0.2210   -5.6520   54.0150 N   0  0  0  0  0  0  0  0  0  0  0  0
    0.4860   -5.3770   55.4160 C   0  0  2  0  0  0  0  0  0  0  0  0
   -0.7430   -5.7470   56.2290 C   0  0  0  0  0  0  0  0  0  0  0  0
   -1.8500   -5.8510   55.6990 O   0  0  0  0  0  0  0  0  0  0  0  0
    0.8270   -3.9030   55.6190 C   0  0  0  0  0  0  0  0  0  0  0  0
    2.2510   -3.5660   55.2100 C   0  0  0  0  0  0  0  0  0  0  0  0
    3.0890   -4.4920   55.1200 O   0  0  0  0  0  0  0  0  0  0  0  0
    2.5380   -2.3690   54.9940 O   0  0  0  0  0  0  0  0  0  0  0  0
   -0.5400   -5.9520   57.5200 N   0  0  0  0  0  0  0  0  0  0  0  0
   -1.6210   -6.3480   58.4090 C   0  0  2  0  0  0  0  0  0  0  0  0
   -2.6630   -5.2310   58.5260 C   0  0  0  0  0  0  0  0  0  0  0  0
   -3.8390   -5.4960   58.7820 O   0  0  0  0  0  0  0  0  0  0  0  0
   -1.0420   -6.6920   59.7790 C   0  0  0  0  0  0  0  0  0  0  0  0
   -1.6660   -7.8270   60.5830 C   0  0  0  0  0  0  0  0  0  0  0  0
   -2.0230   -9.0160   59.7060 C   0  0  0  0  0  0  0  0  0  0  0  0
   -0.6890   -8.2410   61.6840 C   0  0  0  0  0  0  0  0  0  0  0  0
   -3.8120   -3.6110   56.1380 N   0  0  0  0  0  0  0  0  0  0  0  0
   -4.6610   -3.7730   54.9650 C   0  0  2  0  0  0  0  0  0  0  0  0
   -5.5050   -5.0320   55.0440 C   0  0  0  0  0  0  0  0  0  0  0  0
   -6.6920   -5.0120   54.7320 O   0  0  0  0  0  0  0  0  0  0  0  0
   -3.7970   -3.9000   53.6930 C   0  0  2  0  0  0  0  0  0  0  0  0
   -3.4160   -2.5200   53.1670 C   0  0  0  0  0  0  0  0  0  0  0  0
   -4.5280   -4.6960   52.6200 C   0  0  0  0  0  0  0  0  0  0  0  0
   -2.5980   -2.5760   51.8950 C   0  0  0  0  0  0  0  0  0  0  0  0
    0.6510    5.1510   58.3120 N   0  0  0  0  0  0  0  0  0  0  0  0
   -0.0900    5.4010   57.0960 C   0  0  2  0  0  0  0  0  0  0  0  0
    0.3290    6.7480   56.5270 C   0  0  0  0  0  0  0  0  0  0  0  0
    0.3150    6.9420   55.3190 O   0  0  0  0  0  0  0  0  0  0  0  0
   -1.5980    5.3610   57.3720 C   0  0  0  0  0  0  0  0  0  0  0  0
   -2.0950    6.4850   58.2100 C   0  0  0  0  0  0  0  0  0  0  0  0
   -2.2180    6.5020   59.5650 C   0  0  0  0  0  0  0  0  0  0  0  0
   -2.5440    7.7700   57.7500 C   0  0  0  0  0  0  0  0  0  0  0  0
   -2.7110    7.7150   59.9800 N   0  0  0  0  0  0  0  0  0  0  0  0
   -2.9200    8.5110   58.8850 C   0  0  0  0  0  0  0  0  0  0  0  0
   -2.6620    8.3620   56.4880 C   0  0  0  0  0  0  0  0  0  0  0  0
   -3.4140    9.8130   58.8010 C   0  0  0  0  0  0  0  0  0  0  0  0
   -3.1500    9.6550   56.4050 C   0  0  0  0  0  0  0  0  0  0  0  0
   -3.5190   10.3680   57.5550 C   0  0  0  0  0  0  0  0  0  0  0  0
    0.7150    7.6750   57.4010 N   0  0  0  0  0  0  0  0  0  0  0  0
    1.1400    9.0020   56.9600 C   0  0  2  0  0  0  0  0  0  0  0  0
    2.2290    8.8630   55.9120 C   0  0  0  0  0  0  0  0  0  0  0  0
    2.2530    9.5810   54.9200 O   0  0  0  0  0  0  0  0  0  0  0  0
    1.7120    9.8260   58.1140 C   0  0  0  0  0  0  0  0  0  0  0  0
    0.8120    9.9840   59.3090 C   0  0  0  0  0  0  0  0  0  0  0  0
    1.0670    8.9230   60.3450 C   0  0  0  0  0  0  0  0  0  0  0  0
    1.0240    7.7300   60.0420 O   0  0  0  0  0  0  0  0  0  0  0  0
    1.3580    9.3440   61.5710 N   0  0  0  0  0  0  0  0  0  0  0  0
  -11.8180   -4.3370   46.2370 N   0  0  0  0  0  0  0  0  0  0  0  0
  -11.0410   -4.4960   45.0180 C   0  0  2  0  0  0  0  0  0  0  0  0
  -11.5160   -5.7480   44.2910 C   0  0  0  0  0  0  0  0  0  0  0  0
  -11.6370   -6.8170   44.8910 O   0  0  0  0  0  0  0  0  0  0  0  0
   -9.5320   -4.6340   45.3040 C   0  0  2  0  0  0  0  0  0  0  0  0
   -9.1240   -3.6610   46.2780 O   0  0  0  0  0  0  0  0  0  0  0  0
   -8.7370   -4.4360   44.0280 C   0  0  0  0  0  0  0  0  0  0  0  0
  -12.6090   -8.3310   47.2600 N   0  0  0  0  0  0  0  0  0  0  0  0
  -11.9320   -8.4260   48.5470 C   0  0  2  0  0  0  0  0  0  0  0  0
  -11.8700   -7.0330   49.1830 C   0  0  0  0  0  0  0  0  0  0  0  0
  -11.7780   -6.0290   48.4750 O   0  0  0  0  0  0  0  0  0  0  0  0
  -10.5290   -9.0100   48.3490 C   0  0  0  0  0  0  0  0  0  0  0  0
  -10.5320  -10.3460   47.6100 C   0  0  0  0  0  0  0  0  0  0  0  0
   -9.1620  -10.7110   47.0310 C   0  0  0  0  0  0  0  0  0  0  0  0
   -9.2490  -11.8520   46.1170 N   0  0  0  0  0  0  0  0  0  0  0  0
   -9.2140  -13.1330   46.4860 C   0  0  0  0  0  0  0  0  0  0  0  0
   -9.0890  -13.4700   47.7630 N   0  0  0  0  0  0  0  0  0  0  0  0
   -9.3040  -14.0890   45.5740 N   0  0  0  0  0  0  0  0  0  0  0  0
   -8.2100   -0.9090   50.7480 N   0  0  0  0  0  0  0  0  0  0  0  0
   -7.8630    0.2770   51.5090 C   0  0  0  0  0  0  0  0  0  0  0  0
   -6.3560    0.4230   51.5620 C   0  0  0  0  0  0  0  0  0  0  0  0
   -5.6310   -0.3510   50.9350 O   0  0  0  0  0  0  0  0  0  0  0  0
   -5.8800    1.4090   52.3110 N   0  0  0  0  0  0  0  0  0  0  0  0
   -4.4540    1.6580   52.4130 C   0  0  0  0  0  0  0  0  0  0  0  0
   -4.1310    3.0760   51.9940 C   0  0  0  0  0  0  0  0  0  0  0  0
   -3.3520    3.7650   52.6470 O   0  0  0  0  0  0  0  0  0  0  0  0
   -4.7240    3.5060   50.8860 N   0  0  0  0  0  0  0  0  0  0  0  0
   -4.6750    4.9030   50.5010 C   0  0  2  0  0  0  0  0  0  0  0  0
   -5.8590    5.6080   51.1550 C   0  0  0  0  0  0  0  0  0  0  0  0
   -6.9840    5.5320   50.6610 O   0  0  0  0  0  0  0  0  0  0  0  0
   -4.7380    5.0520   48.9810 C   0  0  0  0  0  0  0  0  0  0  0  0
   -4.5880    6.4950   48.5310 C   0  0  0  0  0  0  0  0  0  0  0  0
   -4.5420    7.3940   49.4020 O   0  0  0  0  0  0  0  0  0  0  0  0
   -4.5300    6.7340   47.3060 O   0  0  0  0  0  0  0  0  0  0  0  0
   -6.8400    8.3640   51.0620 N   0  0  0  0  0  0  0  0  0  0  0  0
   -7.4910    9.3520   50.2210 C   0  0  2  0  0  0  0  0  0  0  0  0
   -8.8680    8.8520   49.7900 C   0  0  0  0  0  0  0  0  0  0  0  0
   -9.7820    9.6400   49.5980 O   0  0  0  0  0  0  0  0  0  0  0  0
   -6.6200    9.7050   49.0190 C   0  0  0  0  0  0  0  0  0  0  0  0
   -5.3900   10.5140   49.3960 C   0  0  0  0  0  0  0  0  0  0  0  0
   -4.6700   11.0500   48.1750 C   0  0  0  0  0  0  0  0  0  0  0  0
   -3.6910   10.1090   47.6290 N   0  0  0  0  0  0  0  0  0  0  0  0
   -2.3680   10.2560   47.6950 C   0  0  0  0  0  0  0  0  0  0  0  0
   -1.8160   11.3150   48.2850 N   0  0  0  0  0  0  0  0  0  0  0  0
   -1.5820    9.3330   47.1580 N   0  0  0  0  0  0  0  0  0  0  0  0
  2  1  1  6
  3  2  1  0
  4  3  2  0
  5  2  1  0
  6  5  1  0
  7  6  1  0
  8  6  2  0
  9  7  2  0
 10  9  1  0
 10  8  1  0
 12 11  1  0
 13 12  1  0
 14 13  2  0
 12 15  1  6
 16 13  1  0
 17 16  1  0
 18 17  1  0
 19 18  2  0
 17 20  1  6
 21 20  1  0
 22 21  1  0
 23 22  1  0
 24 23  1  0
 25 18  1  0
 26 25  1  6
 27 26  1  0
 28 27  2  0
 29 26  1  0
 30 29  1  0
 29 31  1  1
 33 32  1  1
 34 33  1  0
 35 34  2  0
 36 33  1  0
 37 36  1  0
 38 34  1  0
 39 38  1  0
 40 39  1  0
 41 40  2  0
 42 40  1  0
 43 42  1  0
 44 43  1  0
 45 44  2  0
 46 44  1  0
 47 46  1  0
 48 47  1  0
 49 48  2  0
 47 50  1  6
 51 50  1  0
 52 51  2  0
 53 51  1  0
 54 48  1  0
 55 54  1  0
 56 55  1  0
 57 56  2  0
 55 58  1  1
 59 58  1  0
 60 59  1  0
 61 59  1  0
 63 62  1  1
 64 63  1  0
 65 64  2  0
 66 63  1  0
 67 66  1  0
 66 68  1  6
 69 67  1  0
 71 70  1  1
 72 71  1  0
 73 72  2  0
 74 71  1  0
 75 74  1  0
 76 75  2  0
 77 75  1  0
 78 76  1  0
 79 77  2  0
 79 78  1  0
 80 77  1  0
 81 79  1  0
 82 80  2  0
 83 82  1  0
 83 81  2  0
 84 72  1  0
 85 84  1  0
 86 85  1  0
 87 86  2  0
 85 88  1  1
 89 88  1  0
 90 89  1  0
 91 90  2  0
 92 90  1  0
 94 93  1  1
 95 94  1  0
 96 95  2  0
 97 94  1  0
 98 97  1  0
 97 99  1  6
101100  1  6
102101  1  0
103102  2  0
104101  1  0
105104  1  0
106105  1  0
107106  1  0
108107  1  0
109108  1  0
110108  2  0
112111  1  0
113112  1  0
114113  2  0
115113  1  0
116115  1  0
117116  1  0
118117  2  0
119117  1  0
120119  1  0
121120  1  0
122121  2  0
120123  1  6
124123  1  0
125124  2  0
126124  1  0
128127  1  6
129128  1  0
130129  2  0
131128  1  0
132131  1  0
133132  1  0
134133  1  0
135134  1  0
136135  1  0
137135  2  0
M  END
$$$$
