
     RDKit          3D

134130  0  0  0  0  0  0  0  0999 V2000
   13.0870    3.8660   24.6000 N   0  0  0  0  0  0  0  0  0  0  0  0
   12.3030    4.2840   23.4350 C   0  0  2  0  0  0  0  0  0  0  0  0
   12.8500    5.5020   22.6830 C   0  0  0  0  0  0  0  0  0  0  0  0
   12.4070    5.8080   21.5800 O   0  0  0  0  0  0  0  0  0  0  0  0
   10.8210    4.4820   23.8010 C   0  0  0  0  0  0  0  0  0  0  0  0
   10.5570    5.7700   24.5840 C   0  0  0  0  0  0  0  0  0  0  0  0
   11.0290    6.8510   24.2240 O   0  0  0  0  0  0  0  0  0  0  0  0
    9.7780    5.6540   25.6530 N   0  0  0  0  0  0  0  0  0  0  0  0
   13.8000    6.1990   23.2940 N   0  0  0  0  0  0  0  0  0  0  0  0
   14.3900    7.3820   22.6810 C   0  0  2  0  0  0  0  0  0  0  0  0
   15.6450    7.0360   21.8840 C   0  0  0  0  0  0  0  0  0  0  0  0
   16.2650    7.9120   21.2850 O   0  0  0  0  0  0  0  0  0  0  0  0
   14.7080    8.4230   23.7420 C   0  0  0  0  0  0  0  0  0  0  0  0
   16.0230    5.7610   21.8940 N   0  0  0  0  0  0  0  0  0  0  0  0
   17.1650    5.2960   21.1150 C   0  0  2  0  0  0  0  0  0  0  0  0
   16.6690    4.7590   19.7820 C   0  0  0  0  0  0  0  0  0  0  0  0
   15.6680    4.0410   19.7320 O   0  0  0  0  0  0  0  0  0  0  0  0
   17.9410    4.2060   21.8590 C   0  0  0  0  0  0  0  0  0  0  0  0
   18.6800    4.6790   23.1040 C   0  0  0  0  0  0  0  0  0  0  0  0
   19.6930    5.7530   22.7640 C   0  0  0  0  0  0  0  0  0  0  0  0
   20.5130    6.1650   23.9800 C   0  0  0  0  0  0  0  0  0  0  0  0
   21.6120    7.1040   23.5980 N   0  0  0  0  0  0  0  0  0  0  0  0
   17.3690    5.1140   18.7080 N   0  0  0  0  0  0  0  0  0  0  0  0
   16.9840    4.6930   17.3690 C   0  0  2  0  0  0  0  0  0  0  0  0
   17.2610    3.2140   17.1870 C   0  0  0  0  0  0  0  0  0  0  0  0
   18.2660    2.6930   17.6760 O   0  0  0  0  0  0  0  0  0  0  0  0
   17.7460    5.4690   16.2720 C   0  0  2  0  0  0  0  0  0  0  0  0
   17.6370    6.8780   16.5050 O   0  0  0  0  0  0  0  0  0  0  0  0
   17.1790    5.1450   14.8890 C   0  0  0  0  0  0  0  0  0  0  0  0
    4.8330    7.4680   10.2310 N   0  0  0  0  0  0  0  0  0  0  0  0
    5.5590    8.4530   11.0390 C   0  0  2  0  0  0  0  0  0  0  0  0
    4.6450    9.3510   11.8810 C   0  0  0  0  0  0  0  0  0  0  0  0
    3.5440    9.7130   11.4570 O   0  0  0  0  0  0  0  0  0  0  0  0
    6.4420    9.3160   10.1360 C   0  0  0  0  0  0  0  0  0  0  0  0
    7.6730    9.8460   10.8060 C   0  0  0  0  0  0  0  0  0  0  0  0
    7.6710   10.9920   11.5720 N   0  0  0  0  0  0  0  0  0  0  0  0
    8.9520    9.3980   10.8040 C   0  0  0  0  0  0  0  0  0  0  0  0
    8.8940   11.2220   12.0210 C   0  0  0  0  0  0  0  0  0  0  0  0
    9.6910   10.2710   11.5680 N   0  0  0  0  0  0  0  0  0  0  0  0
    5.1250    9.7120   13.0710 N   0  0  0  0  0  0  0  0  0  0  0  0
    4.3340   10.4470   14.0590 C   0  0  2  0  0  0  0  0  0  0  0  0
    4.2240   11.9400   13.7740 C   0  0  0  0  0  0  0  0  0  0  0  0
    3.2460   12.5850   14.1690 O   0  0  0  0  0  0  0  0  0  0  0  0
    4.9260   10.2540   15.4550 C   0  0  0  0  0  0  0  0  0  0  0  0
    4.7140    8.9390   15.9170 O   0  0  0  0  0  0  0  0  0  0  0  0
    5.2390   12.4920   13.1170 N   0  0  0  0  0  0  0  0  0  0  0  0
    5.2320   13.9000   12.7650 C   0  0  0  0  0  0  0  0  0  0  0  0
    6.6140   14.5160   12.6850 C   0  0  0  0  0  0  0  0  0  0  0  0
    7.6170   13.8680   12.9910 O   0  0  0  0  0  0  0  0  0  0  0  0
    6.6630   15.7750   12.2640 N   0  0  0  0  0  0  0  0  0  0  0  0
    7.9200   16.4850   12.1300 C   0  0  0  0  0  0  0  0  0  0  0  0
    8.0860   17.0810   10.7480 C   0  0  0  0  0  0  0  0  0  0  0  0
    7.1080   17.2910   10.0270 O   0  0  0  0  0  0  0  0  0  0  0  0
    9.3300   17.3600   10.3740 N   0  0  0  0  0  0  0  0  0  0  0  0
    9.6030   17.9630    9.0770 C   0  0  2  0  0  0  0  0  0  0  0  0
    9.3770   16.9340    7.9620 C   0  0  0  0  0  0  0  0  0  0  0  0
    9.4920   15.7310    8.1890 O   0  0  0  0  0  0  0  0  0  0  0  0
   11.0230   18.5490    9.0410 C   0  0  0  0  0  0  0  0  0  0  0  0
   11.1880   19.7760    9.9590 C   0  0  0  0  0  0  0  0  0  0  0  0
   10.1620   20.3660   10.3860 O   0  0  0  0  0  0  0  0  0  0  0  0
   12.3500   20.1640   10.2380 O   0  0  0  0  0  0  0  0  0  0  0  0
    9.0330   17.4060    6.7660 N   0  0  0  0  0  0  0  0  0  0  0  0
    8.7350   16.5110    5.6440 C   0  0  2  0  0  0  0  0  0  0  0  0
    9.9130   15.6130    5.2960 C   0  0  0  0  0  0  0  0  0  0  0  0
    9.7340   14.5000    4.7870 O   0  0  0  0  0  0  0  0  0  0  0  0
    8.3270   17.3050    4.4080 C   0  0  0  0  0  0  0  0  0  0  0  0
    6.8310   17.4430    4.1440 C   0  0  0  0  0  0  0  0  0  0  0  0
    6.6150   18.0040    2.7480 C   0  0  0  0  0  0  0  0  0  0  0  0
    6.1300   16.1070    4.3080 C   0  0  0  0  0  0  0  0  0  0  0  0
   11.6760   13.9860    7.2680 N   0  0  0  0  0  0  0  0  0  0  0  0
   11.6700   12.7640    8.0810 C   0  0  2  0  0  0  0  0  0  0  0  0
   10.3240   12.0510    8.1660 C   0  0  0  0  0  0  0  0  0  0  0  0
   10.2820   10.8860    8.5520 O   0  0  0  0  0  0  0  0  0  0  0  0
   12.1790   13.0030    9.5130 C   0  0  2  0  0  0  0  0  0  0  0  0
   11.2690   13.9850   10.2490 C   0  0  0  0  0  0  0  0  0  0  0  0
   13.6100   13.5090    9.4990 C   0  0  0  0  0  0  0  0  0  0  0  0
   11.6640   14.1880   11.6790 C   0  0  0  0  0  0  0  0  0  0  0  0
   20.0060   18.9450    5.9680 N   0  0  0  0  0  0  0  0  0  0  0  0
   20.2570   17.8920    6.9400 C   0  0  2  0  0  0  0  0  0  0  0  0
   21.5930   18.1670    7.6020 C   0  0  0  0  0  0  0  0  0  0  0  0
   21.8480   17.7070    8.7140 O   0  0  0  0  0  0  0  0  0  0  0  0
   20.2840   16.5150    6.2680 C   0  0  0  0  0  0  0  0  0  0  0  0
   21.3570   16.3800    5.2220 C   0  0  0  0  0  0  0  0  0  0  0  0
   21.2260   16.6040    3.8770 C   0  0  0  0  0  0  0  0  0  0  0  0
   22.7250   15.9960    5.4310 C   0  0  0  0  0  0  0  0  0  0  0  0
   22.4250   16.3830    3.2420 N   0  0  0  0  0  0  0  0  0  0  0  0
   23.3600   16.0100    4.1720 C   0  0  0  0  0  0  0  0  0  0  0  0
   23.4720   15.6370    6.5570 C   0  0  0  0  0  0  0  0  0  0  0  0
   24.7060   15.6830    4.0110 C   0  0  0  0  0  0  0  0  0  0  0  0
   24.8090   15.3150    6.3940 C   0  0  0  0  0  0  0  0  0  0  0  0
   25.4110   15.3410    5.1320 C   0  0  0  0  0  0  0  0  0  0  0  0
   22.4470   18.9130    6.9040 N   0  0  0  0  0  0  0  0  0  0  0  0
   23.7580   19.2540    7.4360 C   0  0  2  0  0  0  0  0  0  0  0  0
   23.6090   19.9840    8.7620 C   0  0  0  0  0  0  0  0  0  0  0  0
   24.2120   19.6050    9.7640 O   0  0  0  0  0  0  0  0  0  0  0  0
   24.5450   20.1120    6.4460 C   0  0  0  0  0  0  0  0  0  0  0  0
   24.9190   19.3980    5.1580 C   0  0  0  0  0  0  0  0  0  0  0  0
   23.9620   19.6990    4.0160 C   0  0  0  0  0  0  0  0  0  0  0  0
   22.7540   19.4980    4.1320 O   0  0  0  0  0  0  0  0  0  0  0  0
   24.5030   20.1920    2.9060 N   0  0  0  0  0  0  0  0  0  0  0  0
   11.5630    3.6360   15.2900 N   0  0  0  0  0  0  0  0  0  0  0  0
   11.4210    4.2400   16.6050 C   0  0  2  0  0  0  0  0  0  0  0  0
   10.2060    3.6260   17.2810 C   0  0  0  0  0  0  0  0  0  0  0  0
    9.1340    3.5600   16.6900 O   0  0  0  0  0  0  0  0  0  0  0  0
   11.2790    5.7790   16.5350 C   0  0  2  0  0  0  0  0  0  0  0  0
   12.4990    6.3440   16.0480 O   0  0  0  0  0  0  0  0  0  0  0  0
   11.0060    6.3600   17.9230 C   0  0  0  0  0  0  0  0  0  0  0  0
   14.7290    8.3100   11.5350 N   0  0  0  0  0  0  0  0  0  0  0  0
   15.6950    8.9660   10.6760 C   0  0  0  0  0  0  0  0  0  0  0  0
   15.8090   10.4340   11.0170 C   0  0  0  0  0  0  0  0  0  0  0  0
   15.1540   10.9150   11.9380 O   0  0  0  0  0  0  0  0  0  0  0  0
   16.6410   11.1500   10.2740 N   0  0  0  0  0  0  0  0  0  0  0  0
   16.8470   12.5600   10.5400 C   0  0  0  0  0  0  0  0  0  0  0  0
   18.2940   12.8520   10.8550 C   0  0  0  0  0  0  0  0  0  0  0  0
   18.9200   13.6950   10.2090 O   0  0  0  0  0  0  0  0  0  0  0  0
   18.8300   12.1610   11.8560 N   0  0  0  0  0  0  0  0  0  0  0  0
   20.2580   12.2320   12.1250 C   0  0  2  0  0  0  0  0  0  0  0  0
   20.9690   11.2690   11.1790 C   0  0  0  0  0  0  0  0  0  0  0  0
   20.7160   10.0640   11.1860 O   0  0  0  0  0  0  0  0  0  0  0  0
   20.5710   11.8920   13.5800 C   0  0  0  0  0  0  0  0  0  0  0  0
   21.9860   12.2880   13.9790 C   0  0  0  0  0  0  0  0  0  0  0  0
   22.7660   12.7050   13.0920 O   0  0  0  0  0  0  0  0  0  0  0  0
   22.3210   12.1810   15.1810 O   0  0  0  0  0  0  0  0  0  0  0  0
   24.1690   10.5750   11.0550 N   0  0  0  0  0  0  0  0  0  0  0  0
   25.2180    9.7960   11.7160 C   0  0  2  0  0  0  0  0  0  0  0  0
   24.7670    8.3450   11.8230 C   0  0  0  0  0  0  0  0  0  0  0  0
   25.5580    7.4150   11.6510 O   0  0  0  0  0  0  0  0  0  0  0  0
   25.5250   10.3380   13.1130 C   0  0  0  0  0  0  0  0  0  0  0  0
   26.0530   11.7560   13.1530 C   0  0  0  0  0  0  0  0  0  0  0  0
   26.3330   12.1810   14.5820 C   0  0  0  0  0  0  0  0  0  0  0  0
   26.5300   13.6220   14.6900 N   0  0  0  0  0  0  0  0  0  0  0  0
   25.6170   14.4620   15.1640 C   0  0  0  0  0  0  0  0  0  0  0  0
   24.4480   13.9970   15.5840 N   0  0  0  0  0  0  0  0  0  0  0  0
   25.8720   15.7630   15.2230 N   0  0  0  0  0  0  0  0  0  0  0  0
  2  1  1  1
  3  2  1  0
  4  3  2  0
  5  2  1  0
  6  5  1  0
  7  6  2  0
  8  6  1  0
  9  3  1  0
 10  9  1  0
 11 10  1  0
 12 11  2  0
 10 13  1  1
 14 11  1  0
 15 14  1  0
 16 15  1  0
 17 16  2  0
 15 18  1  1
 19 18  1  0
 20 19  1  0
 21 20  1  0
 22 21  1  0
 23 16  1  0
 24 23  1  1
 25 24  1  0
 26 25  2  0
 27 24  1  0
 28 27  1  0
 27 29  1  6
 31 30  1  6
 32 31  1  0
 33 32  2  0
 34 31  1  0
 35 34  1  0
 36 35  1  0
 37 35  2  0
 38 36  2  0
 39 37  1  0
 39 38  1  0
 40 32  1  0
 41 40  1  0
 42 41  1  0
 43 42  2  0
 41 44  1  1
 45 44  1  0
 46 42  1  0
 47 46  1  0
 48 47  1  0
 49 48  2  0
 50 48  1  0
 51 50  1  0
 52 51  1  0
 53 52  2  0
 54 52  1  0
 55 54  1  0
 56 55  1  0
 57 56  2  0
 55 58  1  1
 59 58  1  0
 60 59  2  0
 61 59  1  0
 62 56  1  0
 63 62  1  0
 64 63  1  0
 65 64  2  0
 63 66  1  6
 67 66  1  0
 68 67  1  0
 69 67  1  0
 71 70  1  1
 72 71  1  0
 73 72  2  0
 74 71  1  0
 75 74  1  0
 74 76  1  6
 77 75  1  0
 79 78  1  6
 80 79  1  0
 81 80  2  0
 82 79  1  0
 83 82  1  0
 84 83  2  0
 85 83  1  0
 86 84  1  0
 87 85  2  0
 87 86  1  0
 88 85  1  0
 89 87  1  0
 90 88  2  0
 91 89  2  0
 91 90  1  0
 92 80  1  0
 93 92  1  0
 94 93  1  0
 95 94  2  0
 93 96  1  6
 97 96  1  0
 98 97  1  0
 99 98  2  0
100 98  1  0
102101  1  6
103102  1  0
104103  2  0
105102  1  0
106105  1  0
105107  1  1
109108  1  0
110109  1  0
111110  2  0
112110  1  0
113112  1  0
114113  1  0
115114  2  0
116114  1  0
117116  1  0
118117  1  0
119118  2  0
117120  1  1
121120  1  0
122121  2  0
123121  1  0
125124  1  1
126125  1  0
127126  2  0
128125  1  0
129128  1  0
130129  1  0
131130  1  0
132131  1  0
133132  1  0
134132  2  0
M  END
$$$$
