
     RDKit          3D

 74 71  0  0  0  0  0  0  0  0999 V2000
   20.0230    0.7310   23.3490 N   0  0  0  0  0  0  0  0  0  0  0  0
   19.1740    0.0880   24.3490 C   0  0  2  0  0  0  0  0  0  0  0  0
   17.7430   -0.0300   23.8310 C   0  0  0  0  0  0  0  0  0  0  0  0
   17.0670    0.9820   23.6420 O   0  0  0  0  0  0  0  0  0  0  0  0
   19.1890    0.8620   25.6670 C   0  0  0  0  0  0  0  0  0  0  0  0
   20.0550    0.2070   26.7160 C   0  0  0  0  0  0  0  0  0  0  0  0
   19.8550   -0.9610   27.0650 O   0  0  0  0  0  0  0  0  0  0  0  0
   21.0320    0.9530   27.2210 N   0  0  0  0  0  0  0  0  0  0  0  0
   15.0500   -1.1890   25.2370 N   0  0  0  0  0  0  0  0  0  0  0  0
   14.0660   -0.7630   26.2230 C   0  0  2  0  0  0  0  0  0  0  0  0
   13.9790    0.7650   26.3130 C   0  0  0  0  0  0  0  0  0  0  0  0
   13.0460    1.3160   26.8980 O   0  0  0  0  0  0  0  0  0  0  0  0
   14.4000   -1.3410   27.6090 C   0  0  2  0  0  0  0  0  0  0  0  0
   15.6590   -0.8220   28.0550 O   0  0  0  0  0  0  0  0  0  0  0  0
   14.4880   -2.8510   27.5360 C   0  0  0  0  0  0  0  0  0  0  0  0
   14.9600    1.4400   25.7290 N   0  0  0  0  0  0  0  0  0  0  0  0
   15.0110    2.8950   25.7300 C   0  0  2  0  0  0  0  0  0  0  0  0
   14.3330    3.4180   24.4710 C   0  0  0  0  0  0  0  0  0  0  0  0
   14.9370    3.4270   23.4020 O   0  0  0  0  0  0  0  0  0  0  0  0
   16.4710    3.3500   25.7630 C   0  0  0  0  0  0  0  0  0  0  0  0
   16.6260    4.8110   26.1230 C   0  0  0  0  0  0  0  0  0  0  0  0
   15.7360    5.6140   25.7790 O   0  0  0  0  0  0  0  0  0  0  0  0
   17.6500    5.1530   26.7530 O   0  0  0  0  0  0  0  0  0  0  0  0
   13.0870    3.8660   24.6000 N   0  0  0  0  0  0  0  0  0  0  0  0
   12.3030    4.2840   23.4350 C   0  0  2  0  0  0  0  0  0  0  0  0
   12.8500    5.5020   22.6830 C   0  0  0  0  0  0  0  0  0  0  0  0
   12.4070    5.8080   21.5800 O   0  0  0  0  0  0  0  0  0  0  0  0
   10.8210    4.4820   23.8010 C   0  0  0  0  0  0  0  0  0  0  0  0
   10.5570    5.7700   24.5840 C   0  0  0  0  0  0  0  0  0  0  0  0
   11.0290    6.8510   24.2240 O   0  0  0  0  0  0  0  0  0  0  0  0
    9.7780    5.6540   25.6530 N   0  0  0  0  0  0  0  0  0  0  0  0
   10.3800    3.1700   18.5160 N   0  0  0  0  0  0  0  0  0  0  0  0
    9.3250    2.4460   19.2130 C   0  0  2  0  0  0  0  0  0  0  0  0
    8.4580    3.3860   20.0520 C   0  0  0  0  0  0  0  0  0  0  0  0
    8.9660    4.3090   20.6940 O   0  0  0  0  0  0  0  0  0  0  0  0
    9.9460    1.3450   20.0750 C   0  0  0  0  0  0  0  0  0  0  0  0
    8.9570    0.4670   20.8100 C   0  0  0  0  0  0  0  0  0  0  0  0
    9.6760   -0.6200   21.6090 C   0  0  0  0  0  0  0  0  0  0  0  0
   10.6090   -0.0690   22.5890 N   0  0  0  0  0  0  0  0  0  0  0  0
   10.2570    0.3250   23.8110 C   0  0  0  0  0  0  0  0  0  0  0  0
    8.9900    0.2360   24.1990 N   0  0  0  0  0  0  0  0  0  0  0  0
   11.1690    0.8140   24.6420 N   0  0  0  0  0  0  0  0  0  0  0  0
    7.1480    3.1500   20.0330 N   0  0  0  0  0  0  0  0  0  0  0  0
    6.1830    3.9630   20.7820 C   0  0  2  0  0  0  0  0  0  0  0  0
    6.2730    3.7750   22.2990 C   0  0  0  0  0  0  0  0  0  0  0  0
    6.3770    2.6480   22.7900 O   0  0  0  0  0  0  0  0  0  0  0  0
    4.7600    3.6270   20.3330 C   0  0  0  0  0  0  0  0  0  0  0  0
    4.2460    4.5600   19.2590 C   0  0  0  0  0  0  0  0  0  0  0  0
    5.0700    5.1710   18.5390 O   0  0  0  0  0  0  0  0  0  0  0  0
    3.0060    4.6750   19.1380 O   0  0  0  0  0  0  0  0  0  0  0  0
    6.2000    4.8800   23.0380 N   0  0  0  0  0  0  0  0  0  0  0  0
    6.2980    4.8380   24.4840 C   0  0  0  0  0  0  0  0  0  0  0  0
    4.9660    5.0170   25.1850 C   0  0  0  0  0  0  0  0  0  0  0  0
    3.9330    5.2020   24.5450 O   0  0  0  0  0  0  0  0  0  0  0  0
    4.9860    4.9620   26.5130 N   0  0  0  0  0  0  0  0  0  0  0  0
    3.7830    5.1910   27.2890 C   0  0  0  0  0  0  0  0  0  0  0  0
    3.0970    3.8950   27.6560 C   0  0  0  0  0  0  0  0  0  0  0  0
    3.4450    2.8340   27.1400 O   0  0  0  0  0  0  0  0  0  0  0  0
    2.1190    3.9800   28.5510 N   0  0  0  0  0  0  0  0  0  0  0  0
    1.4560    2.7870   29.0540 C   0  0  2  0  0  0  0  0  0  0  0  0
    0.7130    2.0420   27.9600 C   0  0  0  0  0  0  0  0  0  0  0  0
    0.0850    2.6530   27.1000 O   0  0  0  0  0  0  0  0  0  0  0  0
    0.5010    3.1290   30.1960 C   0  0  0  0  0  0  0  0  0  0  0  0
   -0.0880    1.8950   30.8390 C   0  0  0  0  0  0  0  0  0  0  0  0
    0.5420    0.8360   30.8650 O   0  0  0  0  0  0  0  0  0  0  0  0
   -1.3050    2.0180   31.3550 N   0  0  0  0  0  0  0  0  0  0  0  0
    0.7840    0.7170   28.0020 N   0  0  0  0  0  0  0  0  0  0  0  0
    0.1780   -0.1040   26.9640 C   0  0  2  0  0  0  0  0  0  0  0  0
   -0.6440   -1.2740   27.5020 C   0  0  0  0  0  0  0  0  0  0  0  0
   -0.1120   -2.1910   28.1320 O   0  0  0  0  0  0  0  0  0  0  0  0
    1.2550   -0.6260   26.0090 C   0  0  0  0  0  0  0  0  0  0  0  0
    0.6880   -1.5230   24.9300 C   0  0  0  0  0  0  0  0  0  0  0  0
    0.0470   -0.9970   23.9950 O   0  0  0  0  0  0  0  0  0  0  0  0
    0.8800   -2.7550   25.0170 O   0  0  0  0  0  0  0  0  0  0  0  0
  2  1  1  6
  3  2  1  0
  4  3  2  0
  5  2  1  0
  6  5  1  0
  7  6  2  0
  8  6  1  0
 10  9  1  6
 11 10  1  0
 12 11  2  0
 13 10  1  0
 14 13  1  0
 13 15  1  6
 16 11  1  0
 17 16  1  0
 18 17  1  0
 19 18  2  0
 17 20  1  6
 21 20  1  0
 22 21  2  0
 23 21  1  0
 24 18  1  0
 25 24  1  0
 26 25  1  0
 27 26  2  0
 25 28  1  1
 29 28  1  0
 30 29  2  0
 31 29  1  0
 33 32  1  1
 34 33  1  0
 35 34  2  0
 36 33  1  0
 37 36  1  0
 38 37  1  0
 39 38  1  0
 40 39  1  0
 41 40  1  0
 42 40  2  0
 43 34  1  0
 44 43  1  0
 45 44  1  0
 46 45  2  0
 44 47  1  6
 48 47  1  0
 49 48  2  0
 50 48  1  0
 51 45  1  0
 52 51  1  0
 53 52  1  0
 54 53  2  0
 55 53  1  0
 56 55  1  0
 57 56  1  0
 58 57  2  0
 59 57  1  0
 60 59  1  0
 61 60  1  0
 62 61  2  0
 60 63  1  1
 64 63  1  0
 65 64  2  0
 66 64  1  0
 67 61  1  0
 68 67  1  0
 69 68  1  0
 70 69  2  0
 68 71  1  6
 72 71  1  0
 73 72  2  0
 74 72  1  0
M  END
$$$$
