
     RDKit          3D

163160  0  0  0  0  0  0  0  0999 V2000
   15.2690    5.9830   44.5700 N   0  0  0  0  0  0  0  0  0  0  0  0
   15.9200    5.2250   43.5110 C   0  0  2  0  0  0  0  0  0  0  0  0
   15.7220    3.7410   43.7940 C   0  0  0  0  0  0  0  0  0  0  0  0
   16.2220    3.2370   44.7850 O   0  0  0  0  0  0  0  0  0  0  0  0
   17.4360    5.5480   43.4490 C   0  0  0  0  0  0  0  0  0  0  0  0
   18.1120    4.8440   42.2800 C   0  0  0  0  0  0  0  0  0  0  0  0
   17.6470    7.0250   43.3220 C   0  0  0  0  0  0  0  0  0  0  0  0
   14.5960   -0.3840   41.7220 N   0  0  0  0  0  0  0  0  0  0  0  0
   14.2840   -1.1220   40.5150 C   0  0  2  0  0  0  0  0  0  0  0  0
   13.1700   -2.1270   40.7790 C   0  0  0  0  0  0  0  0  0  0  0  0
   12.9330   -2.5180   41.9200 O   0  0  0  0  0  0  0  0  0  0  0  0
   15.5040   -1.8590   39.9740 C   0  0  2  0  0  0  0  0  0  0  0  0
   15.8980   -2.8760   40.9000 O   0  0  0  0  0  0  0  0  0  0  0  0
   16.6580   -0.8950   39.7520 C   0  0  0  0  0  0  0  0  0  0  0  0
   14.9920  -12.2070   32.7310 N   0  0  0  0  0  0  0  0  0  0  0  0
   15.6590  -13.2370   31.9330 C   0  0  2  0  0  0  0  0  0  0  0  0
   17.1720  -13.1880   32.1120 C   0  0  0  0  0  0  0  0  0  0  0  0
   17.8870  -14.1370   31.7670 O   0  0  0  0  0  0  0  0  0  0  0  0
   15.3340  -13.0770   30.4500 C   0  0  0  0  0  0  0  0  0  0  0  0
   13.9930  -13.4080   30.1750 O   0  0  0  0  0  0  0  0  0  0  0  0
   17.6540  -12.0640   32.6210 N   0  0  0  0  0  0  0  0  0  0  0  0
   19.0660  -11.9040   32.8770 C   0  0  0  0  0  0  0  0  0  0  0  0
   19.3550  -10.4630   33.2050 C   0  0  0  0  0  0  0  0  0  0  0  0
   18.4310   -9.6660   33.3820 O   0  0  0  0  0  0  0  0  0  0  0  0
   20.6420  -10.1340   33.2830 N   0  0  0  0  0  0  0  0  0  0  0  0
   21.0770   -8.7730   33.5350 C   0  0  0  0  0  0  0  0  0  0  0  0
   21.8830   -8.7090   34.8180 C   0  0  0  0  0  0  0  0  0  0  0  0
   22.1560   -9.7330   35.4290 O   0  0  0  0  0  0  0  0  0  0  0  0
   22.2680   -7.5030   35.2110 N   0  0  0  0  0  0  0  0  0  0  0  0
   23.0210   -7.2870   36.4400 C   0  0  2  0  0  0  0  0  0  0  0  0
   22.0840   -7.4550   37.6270 C   0  0  0  0  0  0  0  0  0  0  0  0
   20.8570   -7.3950   37.4710 O   0  0  0  0  0  0  0  0  0  0  0  0
   23.6330   -5.8850   36.4430 C   0  0  0  0  0  0  0  0  0  0  0  0
   24.7470   -5.7320   35.4130 C   0  0  0  0  0  0  0  0  0  0  0  0
   25.4600   -6.7310   35.1580 O   0  0  0  0  0  0  0  0  0  0  0  0
   24.9140   -4.6140   34.8710 O   0  0  0  0  0  0  0  0  0  0  0  0
   22.6700   -7.6670   38.8040 N   0  0  0  0  0  0  0  0  0  0  0  0
   21.9120   -7.9640   40.0180 C   0  0  2  0  0  0  0  0  0  0  0  0
   21.0080   -6.8110   40.3540 C   0  0  0  0  0  0  0  0  0  0  0  0
   20.0060   -6.9660   41.0490 O   0  0  0  0  0  0  0  0  0  0  0  0
   22.8490   -8.2200   41.1960 C   0  0  0  0  0  0  0  0  0  0  0  0
   23.4160   -9.6300   41.3160 C   0  0  0  0  0  0  0  0  0  0  0  0
   24.5060   -9.6720   42.3950 C   0  0  0  0  0  0  0  0  0  0  0  0
   22.2980  -10.6200   41.6360 C   0  0  0  0  0  0  0  0  0  0  0  0
   21.3630   -5.6430   39.8560 N   0  0  0  0  0  0  0  0  0  0  0  0
   20.5680   -4.4670   40.1210 C   0  0  2  0  0  0  0  0  0  0  0  0
   19.2020   -4.5420   39.4320 C   0  0  0  0  0  0  0  0  0  0  0  0
   18.2950   -3.7940   39.8020 O   0  0  0  0  0  0  0  0  0  0  0  0
   21.3340   -3.1950   39.7080 C   0  0  0  0  0  0  0  0  0  0  0  0
   22.4950   -2.8220   40.6610 C   0  0  0  0  0  0  0  0  0  0  0  0
   23.7680   -3.6230   40.4230 C   0  0  0  0  0  0  0  0  0  0  0  0
   23.8710   -4.2600   39.3590 O   0  0  0  0  0  0  0  0  0  0  0  0
   24.6810   -3.6080   41.2890 O   0  0  0  0  0  0  0  0  0  0  0  0
   19.0370   -5.4330   38.4510 N   0  0  0  0  0  0  0  0  0  0  0  0
   17.7400   -5.5380   37.7440 C   0  0  2  0  0  0  0  0  0  0  0  0
   17.0200   -6.8740   37.9450 C   0  0  0  0  0  0  0  0  0  0  0  0
   15.7780   -6.9300   37.9390 O   0  0  0  0  0  0  0  0  0  0  0  0
   17.8650   -5.2980   36.2190 C   0  0  2  0  0  0  0  0  0  0  0  0
   18.5260   -6.4770   35.5330 C   0  0  0  0  0  0  0  0  0  0  0  0
   18.6340   -4.0100   35.9080 C   0  0  0  0  0  0  0  0  0  0  0  0
   18.2480   -6.4990   34.0680 C   0  0  0  0  0  0  0  0  0  0  0  0
   16.1040   -3.7430   43.7900 N   0  0  0  0  0  0  0  0  0  0  0  0
   17.2980   -3.0780   44.2650 C   0  0  2  0  0  0  0  0  0  0  0  0
   16.9760   -1.6790   44.7670 C   0  0  0  0  0  0  0  0  0  0  0  0
   16.3270   -0.8980   44.0780 O   0  0  0  0  0  0  0  0  0  0  0  0
   18.3190   -3.0160   43.1310 C   0  0  0  0  0  0  0  0  0  0  0  0
   19.4940   -2.1380   43.4210 C   0  0  0  0  0  0  0  0  0  0  0  0
   20.3190   -2.3320   44.5130 N   0  0  0  0  0  0  0  0  0  0  0  0
   19.9940   -1.0690   42.7570 C   0  0  0  0  0  0  0  0  0  0  0  0
   21.2750   -1.4220   44.5030 C   0  0  0  0  0  0  0  0  0  0  0  0
   21.1000   -0.6370   43.4510 N   0  0  0  0  0  0  0  0  0  0  0  0
   27.0410   -1.7780   40.8410 N   0  0  0  0  0  0  0  0  0  0  0  0
   27.1310   -1.1620   39.5190 C   0  0  2  0  0  0  0  0  0  0  0  0
   26.2720    0.0900   39.5170 C   0  0  0  0  0  0  0  0  0  0  0  0
   25.0650    0.0140   39.7240 O   0  0  0  0  0  0  0  0  0  0  0  0
   26.6280   -2.1080   38.4170 C   0  0  0  0  0  0  0  0  0  0  0  0
   27.4460   -3.3790   38.3040 C   0  0  0  0  0  0  0  0  0  0  0  0
   28.6820   -3.3450   38.2610 O   0  0  0  0  0  0  0  0  0  0  0  0
   26.7550   -4.5170   38.2510 N   0  0  0  0  0  0  0  0  0  0  0  0
   26.8860    1.2390   39.2720 N   0  0  0  0  0  0  0  0  0  0  0  0
   26.1720    2.5040   39.3520 C   0  0  2  0  0  0  0  0  0  0  0  0
   25.0760    2.6460   38.2880 C   0  0  0  0  0  0  0  0  0  0  0  0
   25.2770    2.3100   37.1230 O   0  0  0  0  0  0  0  0  0  0  0  0
   27.1630    3.6570   39.2340 C   0  0  0  0  0  0  0  0  0  0  0  0
   28.2560    3.6160   40.2940 C   0  0  0  0  0  0  0  0  0  0  0  0
   29.4150    4.9930   40.1650 S   0  0  0  0  0  0  0  0  0  0  0  0
   29.9770    4.8190   38.4710 C   0  0  0  0  0  0  0  0  0  0  0  0
   23.9170    3.1400   38.7170 N   0  0  0  0  0  0  0  0  0  0  0  0
   22.8350    3.5150   37.8100 C   0  0  2  0  0  0  0  0  0  0  0  0
   23.1710    4.8390   37.1350 C   0  0  0  0  0  0  0  0  0  0  0  0
   22.7960    5.0790   35.9890 O   0  0  0  0  0  0  0  0  0  0  0  0
   21.5040    3.6520   38.5700 C   0  0  0  0  0  0  0  0  0  0  0  0
   21.5420    4.7100   39.6320 C   0  0  0  0  0  0  0  0  0  0  0  0
   21.9810    4.5610   40.9090 C   0  0  0  0  0  0  0  0  0  0  0  0
   21.1350    6.0860   39.5050 C   0  0  0  0  0  0  0  0  0  0  0  0
   21.8760    5.7520   41.5920 N   0  0  0  0  0  0  0  0  0  0  0  0
   21.3580    6.7030   40.7550 C   0  0  0  0  0  0  0  0  0  0  0  0
   20.6060    6.8540   38.4590 C   0  0  0  0  0  0  0  0  0  0  0  0
   21.0710    8.0430   40.9910 C   0  0  0  0  0  0  0  0  0  0  0  0
   20.3230    8.2010   38.6970 C   0  0  0  0  0  0  0  0  0  0  0  0
   20.5560    8.7750   39.9550 C   0  0  0  0  0  0  0  0  0  0  0  0
   23.8720    5.7040   37.8580 N   0  0  0  0  0  0  0  0  0  0  0  0
   24.2500    6.9980   37.3150 C   0  0  2  0  0  0  0  0  0  0  0  0
   25.6670    6.9100   36.7610 C   0  0  0  0  0  0  0  0  0  0  0  0
   26.6400    6.8480   37.5060 O   0  0  0  0  0  0  0  0  0  0  0  0
   24.1050    8.0990   38.3780 C   0  0  0  0  0  0  0  0  0  0  0  0
   25.2540    8.2760   39.3770 C   0  0  0  0  0  0  0  0  0  0  0  0
   25.2510    7.2900   40.5410 C   0  0  0  0  0  0  0  0  0  0  0  0
   24.7920    6.1530   40.4360 O   0  0  0  0  0  0  0  0  0  0  0  0
   25.7780    7.7400   41.6660 N   0  0  0  0  0  0  0  0  0  0  0  0
    8.2960   -5.2650   31.7950 N   0  0  0  0  0  0  0  0  0  0  0  0
    8.7560   -5.3130   30.4190 C   0  0  2  0  0  0  0  0  0  0  0  0
    8.0790   -6.5470   29.8760 C   0  0  0  0  0  0  0  0  0  0  0  0
    7.9910   -7.5590   30.5770 O   0  0  0  0  0  0  0  0  0  0  0  0
   10.3070   -5.4190   30.3570 C   0  0  2  0  0  0  0  0  0  0  0  0
   10.8700   -4.1650   30.7460 O   0  0  0  0  0  0  0  0  0  0  0  0
   10.8120   -5.7560   28.9550 C   0  0  0  0  0  0  0  0  0  0  0  0
    7.8320   -9.4060   32.9270 N   0  0  0  0  0  0  0  0  0  0  0  0
    8.9010   -9.5880   33.8860 C   0  0  2  0  0  0  0  0  0  0  0  0
    9.1780   -8.2660   34.6030 C   0  0  0  0  0  0  0  0  0  0  0  0
    9.0220   -7.2010   34.0220 O   0  0  0  0  0  0  0  0  0  0  0  0
   10.1370  -10.0560   33.1340 C   0  0  0  0  0  0  0  0  0  0  0  0
   10.0140  -11.4700   32.6770 C   0  0  0  0  0  0  0  0  0  0  0  0
   10.7010  -11.7200   31.3710 C   0  0  0  0  0  0  0  0  0  0  0  0
   11.1800  -13.0930   31.3100 N   0  0  0  0  0  0  0  0  0  0  0  0
   10.5560  -14.1060   30.7400 C   0  0  0  0  0  0  0  0  0  0  0  0
    9.4020  -13.9350   30.1250 N   0  0  0  0  0  0  0  0  0  0  0  0
   11.1040  -15.3050   30.7840 N   0  0  0  0  0  0  0  0  0  0  0  0
    9.5650   -8.3280   35.8850 N   0  0  0  0  0  0  0  0  0  0  0  0
    9.7050   -7.0880   36.6400 C   0  0  2  0  0  0  0  0  0  0  0  0
   10.9200   -6.2750   36.2070 C   0  0  0  0  0  0  0  0  0  0  0  0
   11.9300   -6.8360   35.7980 O   0  0  0  0  0  0  0  0  0  0  0  0
    9.8360   -7.5660   38.0900 C   0  0  0  0  0  0  0  0  0  0  0  0
   10.3040   -8.9520   38.0050 C   0  0  0  0  0  0  0  0  0  0  0  0
    9.7340   -9.5180   36.7350 C   0  0  0  0  0  0  0  0  0  0  0  0
   10.7530   -4.9810   36.2520 N   0  0  0  0  0  0  0  0  0  0  0  0
   11.8300   -4.0950   35.9520 C   0  0  0  0  0  0  0  0  0  0  0  0
   11.6520   -3.5910   34.5670 C   0  0  0  0  0  0  0  0  0  0  0  0
   11.1030   -4.2560   33.7430 O   0  0  0  0  0  0  0  0  0  0  0  0
   12.1440   -2.4100   34.3100 N   0  0  0  0  0  0  0  0  0  0  0  0
   12.2070   -1.9540   32.9640 C   0  0  0  0  0  0  0  0  0  0  0  0
   12.6750   -0.5580   32.9040 C   0  0  0  0  0  0  0  0  0  0  0  0
   12.5180    0.1670   33.8260 O   0  0  0  0  0  0  0  0  0  0  0  0
   13.2560   -0.1760   31.8000 N   0  0  0  0  0  0  0  0  0  0  0  0
   13.4120    1.2260   31.5370 C   0  0  0  0  0  0  0  0  0  0  0  0
   14.7000    1.7100   32.1040 C   0  0  0  0  0  0  0  0  0  0  0  0
   15.7320    1.1550   31.8380 O   0  0  0  0  0  0  0  0  0  0  0  0
   14.6320    2.7870   32.8540 N   0  0  0  0  0  0  0  0  0  0  0  0
   15.7290    3.2120   33.6400 C   0  0  2  0  0  0  0  0  0  0  0  0
   15.2340    4.0700   34.7670 C   0  0  0  0  0  0  0  0  0  0  0  0
   14.0690    4.1900   35.0010 O   0  0  0  0  0  0  0  0  0  0  0  0
   16.7420    3.9230   32.7730 C   0  0  0  0  0  0  0  0  0  0  0  0
   16.2010    5.1590   32.1720 C   0  0  0  0  0  0  0  0  0  0  0  0
   15.1130    5.1700   31.6710 O   0  0  0  0  0  0  0  0  0  0  0  0
   16.9520    6.2120   32.2410 N   0  0  0  0  0  0  0  0  0  0  0  0
   16.1440    4.6360   35.5030 N   0  0  0  0  0  0  0  0  0  0  0  0
   15.7820    5.3460   36.6900 C   0  0  2  0  0  0  0  0  0  0  0  0
   14.8830    6.5180   36.3990 C   0  0  0  0  0  0  0  0  0  0  0  0
   14.0710    6.8710   37.2080 O   0  0  0  0  0  0  0  0  0  0  0  0
   17.0430    5.7840   37.4130 C   0  0  2  0  0  0  0  0  0  0  0  0
   17.8140    4.5750   37.9290 C   0  0  0  0  0  0  0  0  0  0  0  0
   16.7010    6.6720   38.5630 C   0  0  0  0  0  0  0  0  0  0  0  0
   16.9660    3.4760   38.5400 C   0  0  0  0  0  0  0  0  0  0  0  0
  2  1  1  1
  3  2  1  0
  4  3  2  0
  5  2  1  0
  6  5  1  0
  7  5  1  0
  9  8  1  1
 10  9  1  0
 11 10  2  0
 12  9  1  0
 13 12  1  0
 12 14  1  1
 16 15  1  1
 17 16  1  0
 18 17  2  0
 19 16  1  0
 20 19  1  0
 21 17  1  0
 22 21  1  0
 23 22  1  0
 24 23  2  0
 25 23  1  0
 26 25  1  0
 27 26  1  0
 28 27  2  0
 29 27  1  0
 30 29  1  0
 31 30  1  0
 32 31  2  0
 30 33  1  6
 34 33  1  0
 35 34  2  0
 36 34  1  0
 37 31  1  0
 38 37  1  0
 39 38  1  0
 40 39  2  0
 38 41  1  1
 42 41  1  0
 43 42  1  0
 44 42  1  0
 45 39  1  0
 46 45  1  0
 47 46  1  0
 48 47  2  0
 46 49  1  6
 50 49  1  0
 51 50  1  0
 52 51  2  0
 53 51  1  0
 54 47  1  0
 55 54  1  6
 56 55  1  0
 57 56  2  0
 58 55  1  0
 59 58  1  0
 58 60  1  1
 61 59  1  0
 63 62  1  6
 64 63  1  0
 65 64  2  0
 66 63  1  0
 67 66  1  0
 68 67  1  0
 69 67  2  0
 70 68  2  0
 71 69  1  0
 71 70  1  0
 73 72  1  1
 74 73  1  0
 75 74  2  0
 76 73  1  0
 77 76  1  0
 78 77  2  0
 79 77  1  0
 80 74  1  0
 81 80  1  0
 82 81  1  0
 83 82  2  0
 81 84  1  6
 85 84  1  0
 86 85  1  0
 87 86  1  0
 88 82  1  0
 89 88  1  0
 90 89  1  0
 91 90  2  0
 89 92  1  1
 93 92  1  0
 94 93  2  0
 95 93  1  0
 96 94  1  0
 97 95  2  0
 97 96  1  0
 98 95  1  0
 99 97  1  0
100 98  2  0
101100  1  0
101 99  2  0
102 90  1  0
103102  1  0
104103  1  0
105104  2  0
103106  1  1
107106  1  0
108107  1  0
109108  2  0
110108  1  0
112111  1  1
113112  1  0
114113  2  0
115112  1  0
116115  1  0
115117  1  6
119118  1  6
120119  1  0
121120  2  0
122119  1  0
123122  1  0
124123  1  0
125124  1  0
126125  1  0
127126  1  0
128126  2  0
129120  1  0
130129  1  0
130131  1  6
132131  2  0
133130  1  0
134133  1  0
135134  1  0
135129  1  0
136131  1  0
137136  1  0
138137  1  0
139138  2  0
140138  1  0
141140  1  0
142141  1  0
143142  2  0
144142  1  0
145144  1  0
146145  1  0
147146  2  0
148146  1  0
149148  1  0
150149  1  0
151150  2  0
149152  1  6
153152  1  0
154153  2  0
155153  1  0
156150  1  0
157156  1  6
158157  1  0
159158  2  0
160157  1  0
161160  1  0
160162  1  1
163161  1  0
M  END
$$$$
