
     RDKit          3D

 71 68  0  0  0  0  0  0  0  0999 V2000
    3.8270    2.9530   24.4160 N   0  0  0  0  0  0  0  0  0  0  0  0
    3.1800    2.1170   23.3990 C   0  0  2  0  0  0  0  0  0  0  0  0
    3.1810    0.6340   23.8210 C   0  0  0  0  0  0  0  0  0  0  0  0
    4.1900   -0.0690   23.6880 O   0  0  0  0  0  0  0  0  0  0  0  0
    3.8760    2.3060   22.0450 C   0  0  0  0  0  0  0  0  0  0  0  0
    2.9530    2.0540   20.8650 C   0  0  0  0  0  0  0  0  0  0  0  0
    2.0850    1.1850   20.9210 O   0  0  0  0  0  0  0  0  0  0  0  0
    3.1560    2.8170   19.7760 N   0  0  0  0  0  0  0  0  0  0  0  0
    2.1070   -1.9630   22.5120 N   0  0  0  0  0  0  0  0  0  0  0  0
    2.4710   -2.8950   21.4460 C   0  0  2  0  0  0  0  0  0  0  0  0
    4.0100   -2.9490   21.2240 C   0  0  0  0  0  0  0  0  0  0  0  0
    4.5240   -3.8300   20.5410 O   0  0  0  0  0  0  0  0  0  0  0  0
    1.7790   -2.5070   20.1310 C   0  0  2  0  0  0  0  0  0  0  0  0
    1.8930   -1.0950   19.9540 O   0  0  0  0  0  0  0  0  0  0  0  0
    0.3080   -2.8590   20.1670 C   0  0  0  0  0  0  0  0  0  0  0  0
    4.7480   -2.0090   21.8050 N   0  0  0  0  0  0  0  0  0  0  0  0
    6.1930   -1.9260   21.5690 C   0  0  2  0  0  0  0  0  0  0  0  0
    6.9680   -2.5290   22.7310 C   0  0  0  0  0  0  0  0  0  0  0  0
    6.9930   -1.9560   23.8200 O   0  0  0  0  0  0  0  0  0  0  0  0
    6.6080   -0.4680   21.4010 C   0  0  0  0  0  0  0  0  0  0  0  0
    8.0190   -0.3190   20.8670 C   0  0  0  0  0  0  0  0  0  0  0  0
    8.8960   -1.1500   21.1180 O   0  0  0  0  0  0  0  0  0  0  0  0
    8.2390    0.7460   20.1120 N   0  0  0  0  0  0  0  0  0  0  0  0
    7.6150   -3.6670   22.5150 N   0  0  0  0  0  0  0  0  0  0  0  0
    8.1550   -4.4090   23.6480 C   0  0  2  0  0  0  0  0  0  0  0  0
    9.4270   -3.7700   24.2190 C   0  0  0  0  0  0  0  0  0  0  0  0
    9.9130   -4.1890   25.2540 O   0  0  0  0  0  0  0  0  0  0  0  0
    8.3980   -5.8620   23.2820 C   0  0  0  0  0  0  0  0  0  0  0  0
    9.6360   -6.0520   22.4230 C   0  0  0  0  0  0  0  0  0  0  0  0
   10.6760   -5.4440   22.6650 O   0  0  0  0  0  0  0  0  0  0  0  0
    9.5260   -6.9040   21.4120 N   0  0  0  0  0  0  0  0  0  0  0  0
    7.5670   -6.4670   28.6560 N   0  0  0  0  0  0  0  0  0  0  0  0
    6.8180   -7.5860   28.0740 C   0  0  2  0  0  0  0  0  0  0  0  0
    7.6920   -8.3710   27.1140 C   0  0  0  0  0  0  0  0  0  0  0  0
    8.4730   -7.7920   26.3540 O   0  0  0  0  0  0  0  0  0  0  0  0
    5.5860   -7.0560   27.3570 C   0  0  0  0  0  0  0  0  0  0  0  0
    4.6810   -8.1180   26.7410 C   0  0  0  0  0  0  0  0  0  0  0  0
    3.4970   -7.4160   26.0570 C   0  0  0  0  0  0  0  0  0  0  0  0
    3.9860   -6.5450   24.9850 N   0  0  0  0  0  0  0  0  0  0  0  0
    4.2910   -6.9800   23.7630 C   0  0  0  0  0  0  0  0  0  0  0  0
    4.1270   -8.2550   23.4420 N   0  0  0  0  0  0  0  0  0  0  0  0
    4.7520   -6.1460   22.8540 N   0  0  0  0  0  0  0  0  0  0  0  0
    7.5850   -9.6890   27.1640 N   0  0  0  0  0  0  0  0  0  0  0  0
    8.4050  -10.5310   26.3200 C   0  0  2  0  0  0  0  0  0  0  0  0
    8.0320  -10.2850   24.8480 C   0  0  0  0  0  0  0  0  0  0  0  0
    6.8610  -10.2870   24.4850 O   0  0  0  0  0  0  0  0  0  0  0  0
    8.1780  -12.0090   26.6670 C   0  0  0  0  0  0  0  0  0  0  0  0
    9.2210  -12.5670   27.6340 C   0  0  0  0  0  0  0  0  0  0  0  0
    9.8210  -11.7720   28.3900 O   0  0  0  0  0  0  0  0  0  0  0  0
    9.4310  -13.8130   27.6350 O   0  0  0  0  0  0  0  0  0  0  0  0
    9.0330  -10.0960   24.0050 N   0  0  0  0  0  0  0  0  0  0  0  0
    8.7950   -9.8580   22.6010 C   0  0  0  0  0  0  0  0  0  0  0  0
    8.7870  -11.1100   21.7730 C   0  0  0  0  0  0  0  0  0  0  0  0
    9.1830  -12.1770   22.2210 O   0  0  0  0  0  0  0  0  0  0  0  0
    8.2900  -10.9760   20.5490 N   0  0  0  0  0  0  0  0  0  0  0  0
    8.4240  -12.0150   19.5550 C   0  0  0  0  0  0  0  0  0  0  0  0
    7.3540  -13.0830   19.5370 C   0  0  0  0  0  0  0  0  0  0  0  0
    6.2620  -12.9380   20.1030 O   0  0  0  0  0  0  0  0  0  0  0  0
    7.6920  -14.1420   18.8060 N   0  0  0  0  0  0  0  0  0  0  0  0
    7.0080  -15.4330   18.8350 C   0  0  2  0  0  0  0  0  0  0  0  0
    5.4790  -15.3930   18.8400 C   0  0  0  0  0  0  0  0  0  0  0  0
    4.8530  -15.7630   17.8450 O   0  0  0  0  0  0  0  0  0  0  0  0
    7.5170  -16.2660   20.0130 C   0  0  0  0  0  0  0  0  0  0  0  0
    4.8860  -14.9550   19.9510 N   0  0  0  0  0  0  0  0  0  0  0  0
    3.4680  -15.2140   20.2240 C   0  0  2  0  0  0  0  0  0  0  0  0
    3.0260  -16.6370   19.7820 C   0  0  0  0  0  0  0  0  0  0  0  0
    3.5890  -17.6320   20.2480 O   0  0  0  0  0  0  0  0  0  0  0  0
    2.5510  -14.1040   19.6590 C   0  0  0  0  0  0  0  0  0  0  0  0
    2.8330  -13.7730   18.1960 C   0  0  0  0  0  0  0  0  0  0  0  0
    2.2620  -14.3810   17.2830 O   0  0  0  0  0  0  0  0  0  0  0  0
    3.6960  -12.7900   17.9670 N   0  0  0  0  0  0  0  0  0  0  0  0
  2  1  1  1
  3  2  1  0
  4  3  2  0
  5  2  1  0
  6  5  1  0
  7  6  2  0
  8  6  1  0
 10  9  1  1
 11 10  1  0
 12 11  2  0
 13 10  1  0
 14 13  1  0
 13 15  1  1
 16 11  1  0
 17 16  1  0
 18 17  1  0
 19 18  2  0
 17 20  1  1
 21 20  1  0
 22 21  2  0
 23 21  1  0
 24 18  1  0
 25 24  1  0
 26 25  1  0
 27 26  2  0
 25 28  1  6
 29 28  1  0
 30 29  2  0
 31 29  1  0
 33 32  1  6
 34 33  1  0
 35 34  2  0
 36 33  1  0
 37 36  1  0
 38 37  1  0
 39 38  1  0
 40 39  1  0
 41 40  1  0
 42 40  2  0
 43 34  1  0
 44 43  1  0
 45 44  1  0
 46 45  2  0
 44 47  1  1
 48 47  1  0
 49 48  2  0
 50 48  1  0
 51 45  1  0
 52 51  1  0
 53 52  1  0
 54 53  2  0
 55 53  1  0
 56 55  1  0
 57 56  1  0
 58 57  2  0
 59 57  1  0
 60 59  1  0
 61 60  1  0
 62 61  2  0
 60 63  1  1
 64 61  1  0
 65 64  1  0
 66 65  1  0
 67 66  2  0
 65 68  1  6
 69 68  1  0
 70 69  2  0
 71 69  1  0
M  END
$$$$
