
     RDKit          3D

108102  0  0  0  0  0  0  0  0999 V2000
  -72.7430  -58.2450  -22.6930 N   0  0  0  0  0  0  0  0  0  0  0  0
  -71.8150  -59.3690  -22.7170 C   0  0  2  0  0  0  0  0  0  0  0  0
  -71.2540  -59.5940  -24.1190 C   0  0  0  0  0  0  0  0  0  0  0  0
  -71.9950  -59.6010  -25.1010 O   0  0  0  0  0  0  0  0  0  0  0  0
  -72.4870  -60.6640  -22.2150 C   0  0  2  0  0  0  0  0  0  0  0  0
  -73.0360  -60.4440  -20.9100 O   0  0  0  0  0  0  0  0  0  0  0  0
  -71.4800  -61.8040  -22.1490 C   0  0  0  0  0  0  0  0  0  0  0  0
  -62.4690  -63.2580  -13.2290 N   0  0  0  0  0  0  0  0  0  0  0  0
  -63.7490  -62.6180  -12.9410 C   0  0  2  0  0  0  0  0  0  0  0  0
  -63.6550  -61.6410  -11.7710 C   0  0  0  0  0  0  0  0  0  0  0  0
  -62.8530  -61.8290  -10.8560 O   0  0  0  0  0  0  0  0  0  0  0  0
  -64.8210  -63.6700  -12.6630 C   0  0  0  0  0  0  0  0  0  0  0  0
  -66.0640  -63.0630  -12.3590 O   0  0  0  0  0  0  0  0  0  0  0  0
  -64.4810  -60.6000  -11.8080 N   0  0  0  0  0  0  0  0  0  0  0  0
  -64.4140  -59.5290  -10.8180 C   0  0  2  0  0  0  0  0  0  0  0  0
  -65.1860  -59.8510   -9.5410 C   0  0  0  0  0  0  0  0  0  0  0  0
  -65.1620  -59.0770   -8.5840 O   0  0  0  0  0  0  0  0  0  0  0  0
  -64.9180  -58.2140  -11.4170 C   0  0  0  0  0  0  0  0  0  0  0  0
  -64.7980  -57.1510  -10.4860 O   0  0  0  0  0  0  0  0  0  0  0  0
  -65.8700  -60.9900   -9.5290 N   0  0  0  0  0  0  0  0  0  0  0  0
  -66.6290  -61.4010   -8.3620 C   0  0  0  0  0  0  0  0  0  0  0  0
  -68.0120  -61.9250   -8.6990 C   0  0  0  0  0  0  0  0  0  0  0  0
  -68.3670  -62.0560   -9.8700 O   0  0  0  0  0  0  0  0  0  0  0  0
  -68.7890  -62.2410   -7.6680 N   0  0  0  0  0  0  0  0  0  0  0  0
  -70.1270  -62.7720   -7.8540 C   0  0  0  0  0  0  0  0  0  0  0  0
  -70.2610  -64.2100   -7.3890 C   0  0  0  0  0  0  0  0  0  0  0  0
  -69.4350  -64.7010   -6.6200 O   0  0  0  0  0  0  0  0  0  0  0  0
  -71.3060  -64.8850   -7.8570 N   0  0  0  0  0  0  0  0  0  0  0  0
  -71.5430  -66.2800   -7.4980 C   0  0  2  0  0  0  0  0  0  0  0  0
  -70.4540  -67.1840   -8.0610 C   0  0  0  0  0  0  0  0  0  0  0  0
  -69.7650  -66.8200   -9.0110 O   0  0  0  0  0  0  0  0  0  0  0  0
  -72.9150  -66.7400   -7.9950 C   0  0  0  0  0  0  0  0  0  0  0  0
  -74.0570  -66.0230   -7.3050 C   0  0  0  0  0  0  0  0  0  0  0  0
  -73.8570  -65.5420   -6.1700 O   0  0  0  0  0  0  0  0  0  0  0  0
  -75.1550  -65.9440   -7.8940 O   0  0  0  0  0  0  0  0  0  0  0  0
  -70.5540  -68.0730  -11.8790 N   0  0  0  0  0  0  0  0  0  0  0  0
  -70.1190  -67.0990  -12.8770 C   0  0  2  0  0  0  0  0  0  0  0  0
  -68.6250  -66.7760  -12.7830 C   0  0  0  0  0  0  0  0  0  0  0  0
  -67.9510  -66.6310  -13.8050 O   0  0  0  0  0  0  0  0  0  0  0  0
  -70.9650  -65.8000  -12.8190 C   0  0  2  0  0  0  0  0  0  0  0  0
  -70.5790  -64.8510  -13.9560 C   0  0  0  0  0  0  0  0  0  0  0  0
  -70.8390  -65.1150  -11.4640 C   0  0  0  0  0  0  0  0  0  0  0  0
  -70.8860  -65.3990  -15.3290 C   0  0  0  0  0  0  0  0  0  0  0  0
  -66.4750  -59.6140  -20.6050 N   0  0  0  0  0  0  0  0  0  0  0  0
  -67.0570  -58.3190  -20.2730 C   0  0  2  0  0  0  0  0  0  0  0  0
  -65.9730  -57.2650  -20.0820 C   0  0  0  0  0  0  0  0  0  0  0  0
  -65.1130  -57.3960  -19.2110 O   0  0  0  0  0  0  0  0  0  0  0  0
  -67.9250  -58.4160  -19.0180 C   0  0  0  0  0  0  0  0  0  0  0  0
  -69.4300  -58.5420  -19.2590 C   0  0  0  0  0  0  0  0  0  0  0  0
  -70.1930  -58.4780  -17.9470 C   0  0  0  0  0  0  0  0  0  0  0  0
  -69.9050  -57.4560  -20.2100 C   0  0  0  0  0  0  0  0  0  0  0  0
  -64.2420  -53.9170  -18.9080 N   0  0  0  0  0  0  0  0  0  0  0  0
  -64.3510  -53.0010  -17.7790 C   0  0  2  0  0  0  0  0  0  0  0  0
  -64.4210  -51.5570  -18.2620 C   0  0  0  0  0  0  0  0  0  0  0  0
  -63.6630  -51.1500  -19.1420 O   0  0  0  0  0  0  0  0  0  0  0  0
  -63.1670  -53.1730  -16.8250 C   0  0  0  0  0  0  0  0  0  0  0  0
  -63.1560  -54.5280  -16.1440 C   0  0  0  0  0  0  0  0  0  0  0  0
  -64.2490  -55.0700  -15.8760 O   0  0  0  0  0  0  0  0  0  0  0  0
  -62.0540  -55.0510  -15.8760 O   0  0  0  0  0  0  0  0  0  0  0  0
  -62.6310  -59.5520  -18.6640 N   0  0  0  0  0  0  0  0  0  0  0  0
  -62.8750  -60.6190  -17.7030 C   0  0  2  0  0  0  0  0  0  0  0  0
  -63.9550  -61.5660  -18.2200 C   0  0  0  0  0  0  0  0  0  0  0  0
  -64.8850  -61.1340  -18.9010 O   0  0  0  0  0  0  0  0  0  0  0  0
  -63.2890  -60.0290  -16.3540 C   0  0  0  0  0  0  0  0  0  0  0  0
  -62.2850  -59.0460  -15.7790 C   0  0  0  0  0  0  0  0  0  0  0  0
  -62.7770  -58.4520  -14.4710 C   0  0  0  0  0  0  0  0  0  0  0  0
  -61.8270  -57.4920  -13.9190 N   0  0  0  0  0  0  0  0  0  0  0  0
  -60.8420  -57.8110  -13.0860 C   0  0  0  0  0  0  0  0  0  0  0  0
  -60.6740  -59.0700  -12.7050 N   0  0  0  0  0  0  0  0  0  0  0  0
  -60.0230  -56.8720  -12.6340 N   0  0  0  0  0  0  0  0  0  0  0  0
  -63.8340  -62.8640  -17.8980 N   0  0  0  0  0  0  0  0  0  0  0  0
  -64.8030  -63.8640  -18.3590 C   0  0  2  0  0  0  0  0  0  0  0  0
  -66.1870  -63.6550  -17.7480 C   0  0  0  0  0  0  0  0  0  0  0  0
  -66.2950  -63.3250  -16.5670 O   0  0  0  0  0  0  0  0  0  0  0  0
  -64.1990  -65.1840  -17.8700 C   0  0  0  0  0  0  0  0  0  0  0  0
  -63.3440  -64.8040  -16.7140 C   0  0  0  0  0  0  0  0  0  0  0  0
  -62.7740  -63.4650  -17.0690 C   0  0  0  0  0  0  0  0  0  0  0  0
  -67.2290  -63.8470  -18.5520 N   0  0  0  0  0  0  0  0  0  0  0  0
  -68.5920  -63.6500  -18.0940 C   0  0  0  0  0  0  0  0  0  0  0  0
  -69.5360  -64.7510  -18.5420 C   0  0  0  0  0  0  0  0  0  0  0  0
  -69.1080  -65.8620  -18.8530 O   0  0  0  0  0  0  0  0  0  0  0  0
  -70.8280  -64.4400  -18.5730 N   0  0  0  0  0  0  0  0  0  0  0  0
  -71.8370  -65.4090  -18.9610 C   0  0  0  0  0  0  0  0  0  0  0  0
  -73.0880  -65.3060  -18.1100 C   0  0  0  0  0  0  0  0  0  0  0  0
  -73.7500  -64.2680  -18.0890 O   0  0  0  0  0  0  0  0  0  0  0  0
  -73.4140  -66.3860  -17.4080 N   0  0  0  0  0  0  0  0  0  0  0  0
  -74.5730  -66.4040  -16.5320 C   0  0  0  0  0  0  0  0  0  0  0  0
  -75.8640  -66.7230  -17.2590 C   0  0  0  0  0  0  0  0  0  0  0  0
  -76.4860  -67.7560  -17.0140 O   0  0  0  0  0  0  0  0  0  0  0  0
  -76.2720  -65.8290  -18.1540 N   0  0  0  0  0  0  0  0  0  0  0  0
  -77.4840  -66.0280  -18.9370 C   0  0  2  0  0  0  0  0  0  0  0  0
  -77.2050  -66.9760  -20.0980 C   0  0  0  0  0  0  0  0  0  0  0  0
  -76.4500  -66.6460  -21.0130 O   0  0  0  0  0  0  0  0  0  0  0  0
  -78.0110  -64.6910  -19.4580 C   0  0  0  0  0  0  0  0  0  0  0  0
  -79.3970  -64.8040  -20.0580 C   0  0  0  0  0  0  0  0  0  0  0  0
  -80.1660  -65.6850  -19.6180 O   0  0  0  0  0  0  0  0  0  0  0  0
  -79.7200  -64.0100  -20.9660 O   0  0  0  0  0  0  0  0  0  0  0  0
  -78.8310  -67.8370  -22.5740 N   0  0  0  0  0  0  0  0  0  0  0  0
  -79.3620  -67.4600  -23.8780 C   0  0  2  0  0  0  0  0  0  0  0  0
  -78.2260  -67.0980  -24.8290 C   0  0  0  0  0  0  0  0  0  0  0  0
  -78.2870  -67.3920  -26.0220 O   0  0  0  0  0  0  0  0  0  0  0  0
  -80.3240  -66.2780  -23.7510 C   0  0  0  0  0  0  0  0  0  0  0  0
  -81.5700  -66.5630  -22.9330 C   0  0  0  0  0  0  0  0  0  0  0  0
  -82.4770  -65.3440  -22.8930 C   0  0  0  0  0  0  0  0  0  0  0  0
  -83.6920  -65.5850  -22.1210 N   0  0  0  0  0  0  0  0  0  0  0  0
  -83.8100  -65.3460  -20.8200 C   0  0  0  0  0  0  0  0  0  0  0  0
  -82.7820  -64.8580  -20.1370 N   0  0  0  0  0  0  0  0  0  0  0  0
  -84.9550  -65.5940  -20.1990 N   0  0  0  0  0  0  0  0  0  0  0  0
  2  1  1  6
  3  2  1  0
  4  3  2  0
  5  2  1  0
  6  5  1  0
  5  7  1  1
  9  8  1  1
 10  9  1  0
 11 10  2  0
 12  9  1  0
 13 12  1  0
 14 10  1  0
 15 14  1  0
 16 15  1  0
 17 16  2  0
 15 18  1  6
 19 18  1  0
 20 16  1  0
 21 20  1  0
 22 21  1  0
 23 22  2  0
 24 22  1  0
 25 24  1  0
 26 25  1  0
 27 26  2  0
 28 26  1  0
 29 28  1  0
 30 29  1  0
 31 30  2  0
 29 32  1  6
 33 32  1  0
 34 33  2  0
 35 33  1  0
 37 36  1  1
 38 37  1  0
 39 38  2  0
 40 37  1  0
 41 40  1  0
 40 42  1  1
 43 41  1  0
 45 44  1  1
 46 45  1  0
 47 46  2  0
 48 45  1  0
 49 48  1  0
 50 49  1  0
 51 49  1  0
 53 52  1  6
 54 53  1  0
 55 54  2  0
 56 53  1  0
 57 56  1  0
 58 57  2  0
 59 57  1  0
 61 60  1  6
 62 61  1  0
 63 62  2  0
 64 61  1  0
 65 64  1  0
 66 65  1  0
 67 66  1  0
 68 67  1  0
 69 68  1  0
 70 68  2  0
 71 62  1  0
 72 71  1  0
 72 73  1  1
 74 73  2  0
 75 72  1  0
 76 75  1  0
 77 76  1  0
 77 71  1  0
 78 73  1  0
 79 78  1  0
 80 79  1  0
 81 80  2  0
 82 80  1  0
 83 82  1  0
 84 83  1  0
 85 84  2  0
 86 84  1  0
 87 86  1  0
 88 87  1  0
 89 88  2  0
 90 88  1  0
 91 90  1  0
 92 91  1  0
 93 92  2  0
 91 94  1  6
 95 94  1  0
 96 95  2  0
 97 95  1  0
 99 98  1  1
100 99  1  0
101100  2  0
102 99  1  0
103102  1  0
104103  1  0
105104  1  0
106105  1  0
107106  1  0
108106  2  0
M  END
$$$$
