
     RDKit          3D

124121  0  0  0  0  0  0  0  0999 V2000
    7.1600  -24.8090  -69.1050 N   0  0  0  0  0  0  0  0  0  0  0  0
    6.3250  -23.8690  -68.3580 C   0  0  2  0  0  0  0  0  0  0  0  0
    6.3790  -22.4760  -68.9920 C   0  0  0  0  0  0  0  0  0  0  0  0
    7.2030  -21.6460  -68.6000 O   0  0  0  0  0  0  0  0  0  0  0  0
    6.7750  -23.8120  -66.8960 C   0  0  0  0  0  0  0  0  0  0  0  0
    6.6210  -25.1160  -66.1660 C   0  0  0  0  0  0  0  0  0  0  0  0
    5.4290  -25.4340  -65.5250 C   0  0  0  0  0  0  0  0  0  0  0  0
    7.6640  -26.0330  -66.1240 C   0  0  0  0  0  0  0  0  0  0  0  0
    5.2840  -26.6370  -64.8520 C   0  0  0  0  0  0  0  0  0  0  0  0
    7.5240  -27.2370  -65.4530 C   0  0  0  0  0  0  0  0  0  0  0  0
    6.3330  -27.5400  -64.8160 C   0  0  0  0  0  0  0  0  0  0  0  0
    5.5040  -22.2200  -69.9860 N   0  0  0  0  0  0  0  0  0  0  0  0
    5.4240  -20.9270  -70.6770 C   0  0  2  0  0  0  0  0  0  0  0  0
    5.2230  -19.7310  -69.7490 C   0  0  0  0  0  0  0  0  0  0  0  0
    4.6300  -19.8680  -68.6760 O   0  0  0  0  0  0  0  0  0  0  0  0
    4.2000  -21.0900  -71.5810 C   0  0  0  0  0  0  0  0  0  0  0  0
    4.1340  -22.5480  -71.8570 C   0  0  0  0  0  0  0  0  0  0  0  0
    4.6040  -23.2180  -70.5980 C   0  0  0  0  0  0  0  0  0  0  0  0
    5.7130  -18.5690  -70.1760 N   0  0  0  0  0  0  0  0  0  0  0  0
    5.6050  -17.3390  -69.3930 C   0  0  2  0  0  0  0  0  0  0  0  0
    4.9830  -16.1840  -70.1890 C   0  0  0  0  0  0  0  0  0  0  0  0
    5.0650  -15.0270  -69.7740 O   0  0  0  0  0  0  0  0  0  0  0  0
    6.9870  -16.9030  -68.8630 C   0  0  2  0  0  0  0  0  0  0  0  0
    7.8540  -16.5960  -69.9640 O   0  0  0  0  0  0  0  0  0  0  0  0
    7.6110  -18.0100  -68.0170 C   0  0  0  0  0  0  0  0  0  0  0  0
    4.3520  -16.5010  -71.3190 N   0  0  0  0  0  0  0  0  0  0  0  0
    3.7150  -15.4890  -72.1560 C   0  0  0  0  0  0  0  0  0  0  0  0
    2.3860  -15.0530  -71.5720 C   0  0  0  0  0  0  0  0  0  0  0  0
    1.5620  -15.8910  -71.2020 O   0  0  0  0  0  0  0  0  0  0  0  0
    2.1820  -13.7400  -71.4900 N   0  0  0  0  0  0  0  0  0  0  0  0
    0.9690  -13.1620  -70.9180 C   0  0  2  0  0  0  0  0  0  0  0  0
    0.2750  -12.2750  -71.9530 C   0  0  0  0  0  0  0  0  0  0  0  0
    0.7840  -11.2040  -72.2870 O   0  0  0  0  0  0  0  0  0  0  0  0
    1.3150  -12.3400  -69.6730 C   0  0  0  0  0  0  0  0  0  0  0  0
    2.0970  -13.0700  -68.5770 C   0  0  0  0  0  0  0  0  0  0  0  0
    2.5200  -12.0960  -67.4880 C   0  0  0  0  0  0  0  0  0  0  0  0
    1.2800  -14.2080  -67.9870 C   0  0  0  0  0  0  0  0  0  0  0  0
    7.6860  -13.2750  -69.3540 N   0  0  0  0  0  0  0  0  0  0  0  0
    8.4950  -13.2610  -68.1320 C   0  0  2  0  0  0  0  0  0  0  0  0
    9.3550  -14.5320  -68.0490 C   0  0  0  0  0  0  0  0  0  0  0  0
    9.1480  -15.3720  -67.1710 O   0  0  0  0  0  0  0  0  0  0  0  0
    7.6080  -13.1240  -66.8690 C   0  0  2  0  0  0  0  0  0  0  0  0
    6.5660  -12.0140  -67.0610 C   0  0  0  0  0  0  0  0  0  0  0  0
    8.4620  -12.8160  -65.6430 C   0  0  0  0  0  0  0  0  0  0  0  0
    5.6250  -11.8290  -65.8880 C   0  0  0  0  0  0  0  0  0  0  0  0
   12.3200  -17.1400  -67.2620 N   0  0  0  0  0  0  0  0  0  0  0  0
   13.1400  -17.3350  -66.0700 C   0  0  2  0  0  0  0  0  0  0  0  0
   13.4700  -18.8160  -65.8770 C   0  0  0  0  0  0  0  0  0  0  0  0
   13.0360  -19.6660  -66.6580 O   0  0  0  0  0  0  0  0  0  0  0  0
   12.3970  -16.8100  -64.8390 C   0  0  0  0  0  0  0  0  0  0  0  0
   11.0930  -17.5000  -64.5870 C   0  0  0  0  0  0  0  0  0  0  0  0
    9.9220  -17.1290  -65.2120 N   0  0  0  0  0  0  0  0  0  0  0  0
   10.7780  -18.5490  -63.7900 C   0  0  0  0  0  0  0  0  0  0  0  0
    8.9400  -17.9140  -64.8050 C   0  0  0  0  0  0  0  0  0  0  0  0
    9.4330  -18.7850  -63.9430 N   0  0  0  0  0  0  0  0  0  0  0  0
   14.2440  -19.1090  -64.8360 N   0  0  0  0  0  0  0  0  0  0  0  0
   14.5210  -20.4850  -64.4260 C   0  0  2  0  0  0  0  0  0  0  0  0
   14.5270  -20.5640  -62.8970 C   0  0  0  0  0  0  0  0  0  0  0  0
   14.1240  -19.6140  -62.2250 O   0  0  0  0  0  0  0  0  0  0  0  0
   15.8540  -20.9970  -65.0180 C   0  0  2  0  0  0  0  0  0  0  0  0
   16.0330  -22.3800  -64.6860 O   0  0  0  0  0  0  0  0  0  0  0  0
   17.0380  -20.1900  -64.4970 C   0  0  0  0  0  0  0  0  0  0  0  0
   14.9770  -21.6940  -62.3540 N   0  0  0  0  0  0  0  0  0  0  0  0
   15.0070  -21.8950  -60.9030 C   0  0  2  0  0  0  0  0  0  0  0  0
   15.9840  -20.9440  -60.2150 C   0  0  0  0  0  0  0  0  0  0  0  0
   16.9230  -20.4430  -60.8360 O   0  0  0  0  0  0  0  0  0  0  0  0
   15.3820  -23.3440  -60.5630 C   0  0  0  0  0  0  0  0  0  0  0  0
   14.3190  -24.3440  -60.9910 C   0  0  0  0  0  0  0  0  0  0  0  0
   13.1160  -24.0010  -60.9600 O   0  0  0  0  0  0  0  0  0  0  0  0
   14.6900  -25.4820  -61.3510 O   0  0  0  0  0  0  0  0  0  0  0  0
    0.9200  -18.6200  -70.6290 N   0  0  0  0  0  0  0  0  0  0  0  0
    1.2230  -19.0680  -69.2690 C   0  0  2  0  0  0  0  0  0  0  0  0
   -0.0100  -19.6740  -68.5980 C   0  0  0  0  0  0  0  0  0  0  0  0
    0.1080  -20.5840  -67.7760 O   0  0  0  0  0  0  0  0  0  0  0  0
    1.7560  -17.9110  -68.4390 C   0  0  0  0  0  0  0  0  0  0  0  0
   -1.1870  -19.1600  -68.9520 N   0  0  0  0  0  0  0  0  0  0  0  0
   -2.4550  -19.6660  -68.4290 C   0  0  0  0  0  0  0  0  0  0  0  0
   -2.8130  -21.0690  -68.8970 C   0  0  0  0  0  0  0  0  0  0  0  0
   -3.6530  -21.7330  -68.2870 O   0  0  0  0  0  0  0  0  0  0  0  0
   13.4120  -17.6410  -53.6080 N   0  0  0  0  0  0  0  0  0  0  0  0
   12.1070  -18.1180  -54.0760 C   0  0  2  0  0  0  0  0  0  0  0  0
   10.9570  -17.3300  -53.4490 C   0  0  0  0  0  0  0  0  0  0  0  0
    9.9300  -17.1020  -54.0910 O   0  0  0  0  0  0  0  0  0  0  0  0
   11.9420  -19.6110  -53.7630 C   0  0  0  0  0  0  0  0  0  0  0  0
   10.6250  -20.1890  -54.2040 C   0  0  0  0  0  0  0  0  0  0  0  0
   10.2850  -20.5840  -55.4660 C   0  0  0  0  0  0  0  0  0  0  0  0
    9.4760  -20.4380  -53.3840 C   0  0  0  0  0  0  0  0  0  0  0  0
    8.9960  -21.0610  -55.4830 N   0  0  0  0  0  0  0  0  0  0  0  0
    8.4770  -20.9840  -54.2180 C   0  0  0  0  0  0  0  0  0  0  0  0
    9.1940  -20.2520  -52.0250 C   0  0  0  0  0  0  0  0  0  0  0  0
    7.2150  -21.3470  -53.7380 C   0  0  0  0  0  0  0  0  0  0  0  0
    7.9400  -20.6130  -51.5480 C   0  0  0  0  0  0  0  0  0  0  0  0
    6.9670  -21.1550  -52.4040 C   0  0  0  0  0  0  0  0  0  0  0  0
    9.8290  -14.0590  -55.2340 N   0  0  0  0  0  0  0  0  0  0  0  0
    9.3270  -14.1550  -56.6100 C   0  0  2  0  0  0  0  0  0  0  0  0
    8.0080  -13.4050  -56.7890 C   0  0  0  0  0  0  0  0  0  0  0  0
    7.8590  -12.6220  -57.7270 O   0  0  0  0  0  0  0  0  0  0  0  0
    9.1690  -15.6230  -57.0720 C   0  0  2  0  0  0  0  0  0  0  0  0
   10.5460  -16.2820  -57.1980 C   0  0  0  0  0  0  0  0  0  0  0  0
    8.4380  -15.6930  -58.4100 C   0  0  0  0  0  0  0  0  0  0  0  0
   10.5050  -17.7660  -57.4930 C   0  0  0  0  0  0  0  0  0  0  0  0
    7.0640  -13.6390  -55.8820 N   0  0  0  0  0  0  0  0  0  0  0  0
    5.7280  -13.0470  -55.9840 C   0  0  2  0  0  0  0  0  0  0  0  0
    5.7270  -11.5220  -55.8200 C   0  0  0  0  0  0  0  0  0  0  0  0
    4.8280  -10.8490  -56.3280 O   0  0  0  0  0  0  0  0  0  0  0  0
    4.7600  -13.6780  -54.9670 C   0  0  2  0  0  0  0  0  0  0  0  0
    5.3030  -13.5610  -53.6470 O   0  0  0  0  0  0  0  0  0  0  0  0
    4.5350  -15.1470  -55.2960 C   0  0  0  0  0  0  0  0  0  0  0  0
    6.6490  -10.4880  -59.3910 N   0  0  0  0  0  0  0  0  0  0  0  0
    5.4620  -10.7050  -60.2230 C   0  0  2  0  0  0  0  0  0  0  0  0
    4.3980   -9.6420  -59.9670 C   0  0  0  0  0  0  0  0  0  0  0  0
    3.8360   -9.0870  -60.9090 O   0  0  0  0  0  0  0  0  0  0  0  0
    4.8740  -12.1010  -59.9870 C   0  0  0  0  0  0  0  0  0  0  0  0
    5.7560  -13.2950  -60.3670 C   0  0  0  0  0  0  0  0  0  0  0  0
    5.0210  -14.5990  -60.0940 C   0  0  0  0  0  0  0  0  0  0  0  0
    6.2010  -13.2230  -61.8200 C   0  0  0  0  0  0  0  0  0  0  0  0
    3.1040   -7.1420  -62.7730 N   0  0  0  0  0  0  0  0  0  0  0  0
    1.6630   -7.0610  -63.0470 C   0  0  2  0  0  0  0  0  0  0  0  0
    1.1100   -5.6410  -62.8930 C   0  0  0  0  0  0  0  0  0  0  0  0
    0.1720   -5.2590  -63.5930 O   0  0  0  0  0  0  0  0  0  0  0  0
    0.8840   -8.0180  -62.1380 C   0  0  0  0  0  0  0  0  0  0  0  0
    1.0710   -9.4950  -62.4620 C   0  0  0  0  0  0  0  0  0  0  0  0
    0.3940  -10.0070  -64.0560 S   0  0  0  0  0  0  0  0  0  0  0  0
   -1.3590   -9.7210  -63.8190 C   0  0  0  0  0  0  0  0  0  0  0  0
  2  1  1  6
  3  2  1  0
  4  3  2  0
  5  2  1  0
  6  5  1  0
  7  6  2  0
  8  6  1  0
  9  7  1  0
 10  8  2  0
 11  9  2  0
 11 10  1  0
 12  3  1  0
 13 12  1  0
 13 14  1  1
 15 14  2  0
 16 13  1  0
 17 16  1  0
 18 17  1  0
 18 12  1  0
 19 14  1  0
 20 19  1  6
 21 20  1  0
 22 21  2  0
 23 20  1  0
 24 23  1  0
 23 25  1  6
 26 21  1  0
 27 26  1  0
 28 27  1  0
 29 28  2  0
 30 28  1  0
 31 30  1  0
 32 31  1  0
 33 32  2  0
 31 34  1  1
 35 34  1  0
 36 35  1  0
 37 35  1  0
 39 38  1  6
 40 39  1  0
 41 40  2  0
 42 39  1  0
 43 42  1  0
 42 44  1  1
 45 43  1  0
 47 46  1  6
 48 47  1  0
 49 48  2  0
 50 47  1  0
 51 50  1  0
 52 51  1  0
 53 51  2  0
 54 52  2  0
 55 54  1  0
 55 53  1  0
 56 48  1  0
 57 56  1  1
 58 57  1  0
 59 58  2  0
 60 57  1  0
 61 60  1  0
 60 62  1  1
 63 58  1  0
 64 63  1  0
 65 64  1  0
 66 65  2  0
 64 67  1  6
 68 67  1  0
 69 68  2  0
 70 68  1  0
 72 71  1  0
 73 72  1  0
 74 73  2  0
 72 75  1  1
 76 73  1  0
 77 76  1  0
 78 77  1  0
 79 78  2  0
 81 80  1  1
 82 81  1  0
 83 82  2  0
 84 81  1  0
 85 84  1  0
 86 85  2  0
 87 85  1  0
 88 86  1  0
 89 88  1  0
 89 87  2  0
 90 87  1  0
 91 89  1  0
 92 90  2  0
 93 92  1  0
 93 91  2  0
 95 94  1  1
 96 95  1  0
 97 96  2  0
 98 95  1  0
 99 98  1  0
 98100  1  6
101 99  1  0
102 96  1  0
103102  1  1
104103  1  0
105104  2  0
106103  1  0
107106  1  0
106108  1  6
110109  1  1
111110  1  0
112111  2  0
113110  1  0
114113  1  0
115114  1  0
116114  1  0
118117  1  1
119118  1  0
120119  2  0
121118  1  0
122121  1  0
123122  1  0
124123  1  0
M  END
$$$$
