
     RDKit          3D

106103  0  0  0  0  0  0  0  0999 V2000
   77.7200  -21.1280   13.0430 N   0  0  0  0  0  0  0  0  0  0  0  0
   77.1000  -21.7030   14.2350 C   0  0  2  0  0  0  0  0  0  0  0  0
   76.5490  -20.5970   15.1440 C   0  0  0  0  0  0  0  0  0  0  0  0
   77.1730  -19.5360   15.2620 O   0  0  0  0  0  0  0  0  0  0  0  0
   78.1590  -22.5100   15.0070 C   0  0  2  0  0  0  0  0  0  0  0  0
   78.2390  -23.8150   14.4460 O   0  0  0  0  0  0  0  0  0  0  0  0
   77.8570  -22.6030   16.5050 C   0  0  0  0  0  0  0  0  0  0  0  0
   75.3950  -20.8180   15.7800 N   0  0  0  0  0  0  0  0  0  0  0  0
   75.0630  -20.0060   16.9650 C   0  0  2  0  0  0  0  0  0  0  0  0
   74.8600  -20.8050   18.2180 C   0  0  0  0  0  0  0  0  0  0  0  0
   73.9450  -21.6230   18.2880 O   0  0  0  0  0  0  0  0  0  0  0  0
   73.9270  -18.9910   16.7640 C   0  0  0  0  0  0  0  0  0  0  0  0
   74.4510  -17.5510   16.8440 C   0  0  0  0  0  0  0  0  0  0  0  0
   73.5490  -16.6200   17.6350 C   0  0  0  0  0  0  0  0  0  0  0  0
   72.4200  -16.1710   16.8240 N   0  0  0  0  0  0  0  0  0  0  0  0
   72.0700  -14.8990   16.6460 C   0  0  0  0  0  0  0  0  0  0  0  0
   72.7550  -13.9340   17.2530 N   0  0  0  0  0  0  0  0  0  0  0  0
   71.0240  -14.5970   15.8730 N   0  0  0  0  0  0  0  0  0  0  0  0
   75.7260  -20.5570   19.2010 N   0  0  0  0  0  0  0  0  0  0  0  0
   75.7800  -21.3420   20.4230 C   0  0  2  0  0  0  0  0  0  0  0  0
   74.4140  -21.8300   20.8750 C   0  0  0  0  0  0  0  0  0  0  0  0
   73.5390  -21.0350   21.2340 O   0  0  0  0  0  0  0  0  0  0  0  0
   76.4510  -20.5540   21.5380 C   0  0  0  0  0  0  0  0  0  0  0  0
   78.2370  -20.3410   21.3520 S   0  0  0  0  0  0  0  0  0  0  0  0
   74.2400  -23.1520   20.8150 N   0  0  0  0  0  0  0  0  0  0  0  0
   73.0770  -23.8270   21.3890 C   0  0  2  0  0  0  0  0  0  0  0  0
   73.0610  -23.4280   22.9140 C   0  0  0  0  0  0  0  0  0  0  0  0
   74.0340  -22.8420   23.4290 O   0  0  0  0  0  0  0  0  0  0  0  0
   73.1060  -25.3820   21.1270 C   0  0  0  0  0  0  0  0  0  0  0  0
   73.2960  -25.8040   19.5870 C   0  0  0  0  0  0  0  0  0  0  0  0
   72.4020  -25.6270   18.7060 O   0  0  0  0  0  0  0  0  0  0  0  0
   74.3490  -26.4050   19.2780 O   0  0  0  0  0  0  0  0  0  0  0  0
   71.9640  -23.6960   23.6250 N   0  0  0  0  0  0  0  0  0  0  0  0
   71.8190  -23.2240   25.0160 C   0  0  2  0  0  0  0  0  0  0  0  0
   72.8420  -23.8200   25.9640 C   0  0  0  0  0  0  0  0  0  0  0  0
   73.4720  -24.8190   25.6260 O   0  0  0  0  0  0  0  0  0  0  0  0
   70.4530  -23.5800   25.5580 C   0  0  0  0  0  0  0  0  0  0  0  0
   70.5610  -23.7210   26.9630 O   0  0  0  0  0  0  0  0  0  0  0  0
   72.9760  -23.2470   27.1620 N   0  0  0  0  0  0  0  0  0  0  0  0
   73.8940  -23.7890   28.1710 C   0  0  0  0  0  0  0  0  0  0  0  0
   75.3490  -23.8080   27.7120 C   0  0  0  0  0  0  0  0  0  0  0  0
   76.1850  -24.5430   28.2540 O   0  0  0  0  0  0  0  0  0  0  0  0
   75.6300  -23.0050   26.6840 N   0  0  0  0  0  0  0  0  0  0  0  0
   76.9900  -22.7450   26.2210 C   0  0  2  0  0  0  0  0  0  0  0  0
   77.2520  -21.2420   26.3610 C   0  0  0  0  0  0  0  0  0  0  0  0
   76.3300  -20.4560   26.6300 O   0  0  0  0  0  0  0  0  0  0  0  0
   77.1860  -23.1580   24.7470 C   0  0  0  0  0  0  0  0  0  0  0  0
   76.4180  -24.3840   24.2590 C   0  0  0  0  0  0  0  0  0  0  0  0
   76.9190  -24.9290   22.9250 C   0  0  0  0  0  0  0  0  0  0  0  0
   76.0930  -25.2640   22.0400 O   0  0  0  0  0  0  0  0  0  0  0  0
   78.1510  -25.0430   22.7630 O   0  0  0  0  0  0  0  0  0  0  0  0
   78.5110  -20.8530   26.1940 N   0  0  0  0  0  0  0  0  0  0  0  0
   78.8670  -19.4510   26.0350 C   0  0  2  0  0  0  0  0  0  0  0  0
   79.5220  -19.2200   24.6600 C   0  0  0  0  0  0  0  0  0  0  0  0
   80.3140  -20.0490   24.1950 O   0  0  0  0  0  0  0  0  0  0  0  0
   79.7960  -18.9420   27.1680 C   0  0  0  0  0  0  0  0  0  0  0  0
   79.3330  -19.4410   28.5160 C   0  0  0  0  0  0  0  0  0  0  0  0
   81.2440  -19.3330   26.9380 C   0  0  0  0  0  0  0  0  0  0  0  0
   79.1890  -18.1080   24.0000 N   0  0  0  0  0  0  0  0  0  0  0  0
   79.9480  -17.7000   22.8200 C   0  0  2  0  0  0  0  0  0  0  0  0
   81.2730  -17.1520   23.2980 C   0  0  0  0  0  0  0  0  0  0  0  0
   81.3200  -16.2860   24.1520 O   0  0  0  0  0  0  0  0  0  0  0  0
   79.2070  -16.6610   21.9900 C   0  0  0  0  0  0  0  0  0  0  0  0
   79.5170  -16.7410   20.5010 C   0  0  0  0  0  0  0  0  0  0  0  0
   79.6070  -15.3750   19.8370 C   0  0  0  0  0  0  0  0  0  0  0  0
   78.7850  -15.0990   18.9340 O   0  0  0  0  0  0  0  0  0  0  0  0
   80.5020  -14.5790   20.2180 O   0  0  0  0  0  0  0  0  0  0  0  0
   82.3490  -17.6870   22.7530 N   0  0  0  0  0  0  0  0  0  0  0  0
   83.6880  -17.3680   23.2070 C   0  0  2  0  0  0  0  0  0  0  0  0
   84.4160  -16.4980   22.1820 C   0  0  0  0  0  0  0  0  0  0  0  0
   85.4490  -15.9010   22.4880 O   0  0  0  0  0  0  0  0  0  0  0  0
   84.4440  -18.6700   23.4370 C   0  0  0  0  0  0  0  0  0  0  0  0
   85.6800  -18.7490   24.3180 C   0  0  0  0  0  0  0  0  0  0  0  0
   85.3950  -18.2130   25.7130 C   0  0  0  0  0  0  0  0  0  0  0  0
   86.1370  -20.2000   24.3540 C   0  0  0  0  0  0  0  0  0  0  0  0
   82.1470  -19.3200   14.5840 N   0  0  0  0  0  0  0  0  0  0  0  0
   81.9730  -18.9280   15.9670 C   0  0  2  0  0  0  0  0  0  0  0  0
   82.4700  -20.0430   16.8530 C   0  0  0  0  0  0  0  0  0  0  0  0
   82.4630  -21.1960   16.4590 O   0  0  0  0  0  0  0  0  0  0  0  0
   80.4990  -18.5990   16.2640 C   0  0  2  0  0  0  0  0  0  0  0  0
   80.1400  -19.0980   17.5530 O   0  0  0  0  0  0  0  0  0  0  0  0
   79.6150  -19.2260   15.2360 C   0  0  0  0  0  0  0  0  0  0  0  0
   82.0380  -21.9890   20.4450 N   0  0  0  0  0  0  0  0  0  0  0  0
   81.2400  -22.2370   21.6320 C   0  0  2  0  0  0  0  0  0  0  0  0
   81.9940  -23.0950   22.6490 C   0  0  0  0  0  0  0  0  0  0  0  0
   82.7380  -24.0010   22.2880 O   0  0  0  0  0  0  0  0  0  0  0  0
   79.9250  -22.8920   21.2470 C   0  0  0  0  0  0  0  0  0  0  0  0
   78.8870  -21.8830   20.1710 S   0  0  0  0  0  0  0  0  0  0  0  0
   79.2230  -23.9570   29.3330 N   0  0  0  0  0  0  0  0  0  0  0  0
   78.9970  -23.0950   30.4970 C   0  0  2  0  0  0  0  0  0  0  0  0
   79.9690  -23.4340   31.6300 C   0  0  0  0  0  0  0  0  0  0  0  0
   80.6010  -24.4900   31.6300 O   0  0  0  0  0  0  0  0  0  0  0  0
   77.5640  -23.2960   30.9790 C   0  0  0  0  0  0  0  0  0  0  0  0
   76.8280  -22.0490   31.4160 C   0  0  0  0  0  0  0  0  0  0  0  0
   75.3270  -22.2890   31.5240 C   0  0  0  0  0  0  0  0  0  0  0  0
   74.5580  -21.6540   30.7610 O   0  0  0  0  0  0  0  0  0  0  0  0
   74.9080  -23.1260   32.3570 O   0  0  0  0  0  0  0  0  0  0  0  0
   80.0800  -22.5350   32.5980 N   0  0  0  0  0  0  0  0  0  0  0  0
   80.9870  -22.7030   33.7350 C   0  0  2  0  0  0  0  0  0  0  0  0
   80.3450  -23.6400   34.7490 C   0  0  0  0  0  0  0  0  0  0  0  0
   79.2630  -23.3720   35.2550 O   0  0  0  0  0  0  0  0  0  0  0  0
   81.3170  -21.3430   34.3580 C   0  0  0  0  0  0  0  0  0  0  0  0
   81.6520  -20.2470   33.3310 C   0  0  0  0  0  0  0  0  0  0  0  0
   80.4320  -19.4780   32.7780 C   0  0  0  0  0  0  0  0  0  0  0  0
   79.4990  -20.0800   32.1870 O   0  0  0  0  0  0  0  0  0  0  0  0
   80.4160  -18.2370   32.9120 O   0  0  0  0  0  0  0  0  0  0  0  0
  2  1  1  6
  3  2  1  0
  4  3  2  0
  5  2  1  0
  6  5  1  0
  5  7  1  1
  8  3  1  0
  9  8  1  0
 10  9  1  0
 11 10  2  0
  9 12  1  6
 13 12  1  0
 14 13  1  0
 15 14  1  0
 16 15  1  0
 17 16  1  0
 18 16  2  0
 19 10  1  0
 20 19  1  0
 21 20  1  0
 22 21  2  0
 20 23  1  1
 24 23  1  0
 25 21  1  0
 26 25  1  0
 27 26  1  0
 28 27  2  0
 26 29  1  1
 30 29  1  0
 31 30  2  0
 32 30  1  0
 33 27  1  0
 34 33  1  0
 35 34  1  0
 36 35  2  0
 34 37  1  1
 38 37  1  0
 39 35  1  0
 40 39  1  0
 41 40  1  0
 42 41  2  0
 43 41  1  0
 44 43  1  0
 45 44  1  0
 46 45  2  0
 44 47  1  6
 48 47  1  0
 49 48  1  0
 50 49  2  0
 51 49  1  0
 52 45  1  0
 53 52  1  1
 54 53  1  0
 55 54  2  0
 56 53  1  0
 57 56  1  0
 58 56  1  0
 59 54  1  0
 60 59  1  0
 61 60  1  0
 62 61  2  0
 60 63  1  1
 64 63  1  0
 65 64  1  0
 66 65  2  0
 67 65  1  0
 68 61  1  0
 69 68  1  0
 70 69  1  0
 71 70  2  0
 69 72  1  6
 73 72  1  0
 74 73  1  0
 75 73  1  0
 77 76  1  6
 78 77  1  0
 79 78  2  0
 80 77  1  0
 81 80  1  0
 80 82  1  6
 84 83  1  6
 85 84  1  0
 86 85  2  0
 87 84  1  0
 88 87  1  0
 88 24  1  0
 90 89  1  6
 91 90  1  0
 92 91  2  0
 93 90  1  0
 94 93  1  0
 95 94  1  0
 96 95  2  0
 97 95  1  0
 98 91  1  0
 99 98  1  0
100 99  1  0
101100  2  0
 99102  1  1
103102  1  0
104103  1  0
105104  2  0
106104  1  0
M  END
$$$$
