
     RDKit          3D

147141  0  0  0  0  0  0  0  0999 V2000
  -60.5430  -90.8470   31.1000 N   0  0  0  0  0  0  0  0  0  0  0  0
  -60.6820  -91.0130   29.6540 C   0  0  2  0  0  0  0  0  0  0  0  0
  -62.1570  -91.1160   29.2390 C   0  0  0  0  0  0  0  0  0  0  0  0
  -62.9670  -91.6710   29.9820 O   0  0  0  0  0  0  0  0  0  0  0  0
  -59.8980  -92.2700   29.2130 C   0  0  0  0  0  0  0  0  0  0  0  0
  -58.4120  -92.1970   29.5990 C   0  0  0  0  0  0  0  0  0  0  0  0
  -57.5060  -93.1950   28.8660 C   0  0  0  0  0  0  0  0  0  0  0  0
  -56.0890  -93.2040   29.4720 C   0  0  0  0  0  0  0  0  0  0  0  0
  -55.1180  -93.8990   28.6140 N   0  0  0  0  0  0  0  0  0  0  0  0
  -64.9030  -92.4460   26.0780 N   0  0  0  0  0  0  0  0  0  0  0  0
  -65.0890  -93.3910   24.9770 C   0  0  2  0  0  0  0  0  0  0  0  0
  -65.1440  -92.6200   23.6470 C   0  0  0  0  0  0  0  0  0  0  0  0
  -65.7610  -91.5560   23.5820 O   0  0  0  0  0  0  0  0  0  0  0  0
  -66.3440  -94.2830   25.1380 C   0  0  0  0  0  0  0  0  0  0  0  0
  -66.4590  -95.0750   26.4540 C   0  0  0  0  0  0  0  0  0  0  0  0
  -65.4100  -95.3970   27.0550 O   0  0  0  0  0  0  0  0  0  0  0  0
  -67.5990  -95.5010   26.7430 O   0  0  0  0  0  0  0  0  0  0  0  0
  -64.7550  -94.8700   16.7210 N   0  0  0  0  0  0  0  0  0  0  0  0
  -64.1810  -94.6390   15.3980 C   0  0  2  0  0  0  0  0  0  0  0  0
  -64.8610  -95.5490   14.3630 C   0  0  0  0  0  0  0  0  0  0  0  0
  -64.7690  -96.7720   14.4760 O   0  0  0  0  0  0  0  0  0  0  0  0
  -62.6590  -94.9130   15.4620 C   0  0  0  0  0  0  0  0  0  0  0  0
  -61.8590  -93.9070   16.3170 C   0  0  0  0  0  0  0  0  0  0  0  0
  -60.3950  -94.3600   16.4900 C   0  0  0  0  0  0  0  0  0  0  0  0
  -61.9640  -92.4640   15.7770 C   0  0  0  0  0  0  0  0  0  0  0  0
  -60.6830 -102.9470   15.7340 N   0  0  0  0  0  0  0  0  0  0  0  0
  -61.0810 -102.4120   17.0350 C   0  0  2  0  0  0  0  0  0  0  0  0
  -61.5860 -100.9780   16.8030 C   0  0  0  0  0  0  0  0  0  0  0  0
  -60.8380 -100.1530   16.2790 O   0  0  0  0  0  0  0  0  0  0  0  0
  -59.8790 -102.3680   18.0130 C   0  0  1  0  0  0  0  0  0  0  0  0
  -60.1700 -101.7300   19.3850 C   0  0  0  0  0  0  0  0  0  0  0  0
  -59.4360 -103.6900   18.2490 O   0  0  0  0  0  0  0  0  0  0  0  0
  -64.1160  -99.1760   19.1790 N   0  0  0  0  0  0  0  0  0  0  0  0
  -64.3410  -98.4110   20.4060 C   0  0  2  0  0  0  0  0  0  0  0  0
  -63.0330  -98.3330   21.2070 C   0  0  0  0  0  0  0  0  0  0  0  0
  -62.4220  -99.3700   21.4730 O   0  0  0  0  0  0  0  0  0  0  0  0
  -65.4930  -99.0400   21.2170 C   0  0  0  0  0  0  0  0  0  0  0  0
  -65.9510  -98.1460   22.3840 C   0  0  0  0  0  0  0  0  0  0  0  0
  -67.1580  -98.7080   23.1480 C   0  0  0  0  0  0  0  0  0  0  0  0
  -67.6140  -97.7360   24.2460 C   0  0  0  0  0  0  0  0  0  0  0  0
  -68.7040  -98.2750   25.0770 N   0  0  0  0  0  0  0  0  0  0  0  0
  -62.6400  -97.1000   21.5630 N   0  0  0  0  0  0  0  0  0  0  0  0
  -61.3790  -96.7880   22.2310 C   0  0  2  0  0  0  0  0  0  0  0  0
  -61.6000  -95.9000   23.4600 C   0  0  0  0  0  0  0  0  0  0  0  0
  -62.4230  -94.9890   23.4070 O   0  0  0  0  0  0  0  0  0  0  0  0
  -60.4380  -96.0660   21.2490 C   0  0  0  0  0  0  0  0  0  0  0  0
  -60.0310  -96.8370   20.0320 C   0  0  0  0  0  0  0  0  0  0  0  0
  -60.6860  -96.8460   18.8500 C   0  0  0  0  0  0  0  0  0  0  0  0
  -58.9220  -97.7720   19.8840 C   0  0  0  0  0  0  0  0  0  0  0  0
  -58.9640  -98.3150   18.5640 C   0  0  0  0  0  0  0  0  0  0  0  0
  -57.8840  -98.2200   20.7310 C   0  0  0  0  0  0  0  0  0  0  0  0
  -60.0570  -97.7120   17.9800 N   0  0  0  0  0  0  0  0  0  0  0  0
  -58.0290  -99.2630   18.1140 C   0  0  0  0  0  0  0  0  0  0  0  0
  -56.9520  -99.1830   20.2990 C   0  0  0  0  0  0  0  0  0  0  0  0
  -57.0260  -99.7070   18.9940 C   0  0  0  0  0  0  0  0  0  0  0  0
  -60.8030  -96.1440   24.5110 N   0  0  0  0  0  0  0  0  0  0  0  0
  -60.6630  -95.2890   25.6870 C   0  0  2  0  0  0  0  0  0  0  0  0
  -59.4950  -94.3210   25.4450 C   0  0  0  0  0  0  0  0  0  0  0  0
  -58.3550  -94.7660   25.2970 O   0  0  0  0  0  0  0  0  0  0  0  0
  -60.4260  -96.1640   26.9270 C   0  0  0  0  0  0  0  0  0  0  0  0
  -59.8220  -93.0240   25.3540 N   0  0  0  0  0  0  0  0  0  0  0  0
  -58.9190  -91.9590   24.9130 C   0  0  2  0  0  0  0  0  0  0  0  0
  -59.0700  -90.7520   25.8580 C   0  0  0  0  0  0  0  0  0  0  0  0
  -60.1960  -90.4250   26.2300 O   0  0  0  0  0  0  0  0  0  0  0  0
  -59.3000  -91.4860   23.4750 C   0  0  0  0  0  0  0  0  0  0  0  0
  -58.3380  -90.4330   22.8950 C   0  0  0  0  0  0  0  0  0  0  0  0
  -59.4170  -92.6600   22.4850 C   0  0  0  0  0  0  0  0  0  0  0  0
  -57.9520  -90.0940   26.2190 N   0  0  0  0  0  0  0  0  0  0  0  0
  -57.9600  -88.8940   27.0700 C   0  0  2  0  0  0  0  0  0  0  0  0
  -58.6890  -87.6890   26.4550 C   0  0  0  0  0  0  0  0  0  0  0  0
  -58.7780  -87.5630   25.2360 O   0  0  0  0  0  0  0  0  0  0  0  0
  -56.5190  -88.4960   27.4840 C   0  0  0  0  0  0  0  0  0  0  0  0
  -56.0580  -89.0940   28.8330 C   0  0  0  0  0  0  0  0  0  0  0  0
  -56.8450  -88.6490   30.0860 C   0  0  0  0  0  0  0  0  0  0  0  0
  -57.5500  -87.6140   30.0290 O   0  0  0  0  0  0  0  0  0  0  0  0
  -56.7360  -89.3700   31.1030 O   0  0  0  0  0  0  0  0  0  0  0  0
  -56.3490  -85.1880   24.5360 N   0  0  0  0  0  0  0  0  0  0  0  0
  -55.9290  -85.7160   23.2390 C   0  0  2  0  0  0  0  0  0  0  0  0
  -56.4720  -84.8510   22.0920 C   0  0  0  0  0  0  0  0  0  0  0  0
  -57.6780  -84.6130   22.0360 O   0  0  0  0  0  0  0  0  0  0  0  0
  -56.4230  -87.1720   23.1130 C   0  0  0  0  0  0  0  0  0  0  0  0
  -55.8220  -87.9690   21.9390 C   0  0  0  0  0  0  0  0  0  0  0  0
  -54.7270  -88.9300   22.4200 C   0  0  0  0  0  0  0  0  0  0  0  0
  -54.0550  -89.6320   21.3150 N   0  0  0  0  0  0  0  0  0  0  0  0
  -53.0940  -90.5670   21.4410 C   0  0  0  0  0  0  0  0  0  0  0  0
  -52.6570  -90.9820   22.6400 N   0  0  0  0  0  0  0  0  0  0  0  0
  -52.5470  -91.0960   20.3420 N   0  0  0  0  0  0  0  0  0  0  0  0
  -53.5320  -86.2720   17.0830 N   0  0  0  0  0  0  0  0  0  0  0  0
  -52.9970  -87.4370   17.7950 C   0  0  0  0  0  0  0  0  0  0  0  0
  -53.8950  -88.6700   17.6090 C   0  0  0  0  0  0  0  0  0  0  0  0
  -53.3950  -89.7950   17.5920 O   0  0  0  0  0  0  0  0  0  0  0  0
  -55.2090  -88.4490   17.4300 N   0  0  0  0  0  0  0  0  0  0  0  0
  -56.1980  -89.4530   17.0510 C   0  0  2  0  0  0  0  0  0  0  0  0
  -55.9860  -89.9550   15.6080 C   0  0  0  0  0  0  0  0  0  0  0  0
  -56.0030  -91.1670   15.3960 O   0  0  0  0  0  0  0  0  0  0  0  0
  -57.6010  -88.8510   17.2960 C   0  0  0  0  0  0  0  0  0  0  0  0
  -58.8060  -89.7120   16.8630 C   0  0  0  0  0  0  0  0  0  0  0  0
  -58.8060  -91.0960   17.5390 C   0  0  0  0  0  0  0  0  0  0  0  0
  -60.1200  -88.9460   17.1020 C   0  0  0  0  0  0  0  0  0  0  0  0
  -52.7230  -92.1440   15.3930 N   0  0  0  0  0  0  0  0  0  0  0  0
  -52.9700  -93.4800   15.9400 C   0  0  2  0  0  0  0  0  0  0  0  0
  -53.7040  -94.4040   14.9500 C   0  0  0  0  0  0  0  0  0  0  0  0
  -53.3440  -95.5770   14.8530 O   0  0  0  0  0  0  0  0  0  0  0  0
  -53.6910  -93.3870   17.3000 C   0  0  0  0  0  0  0  0  0  0  0  0
  -53.9130  -94.7330   17.9690 C   0  0  0  0  0  0  0  0  0  0  0  0
  -52.8890  -95.3070   18.7520 C   0  0  0  0  0  0  0  0  0  0  0  0
  -55.0460  -95.5110   17.6480 C   0  0  0  0  0  0  0  0  0  0  0  0
  -53.0340  -96.5950   19.2470 C   0  0  0  0  0  0  0  0  0  0  0  0
  -55.1620  -96.8020   18.1380 C   0  0  0  0  0  0  0  0  0  0  0  0
  -54.1650  -97.3400   18.9410 C   0  0  0  0  0  0  0  0  0  0  0  0
  -54.7040  -93.8650   14.2300 N   0  0  0  0  0  0  0  0  0  0  0  0
  -55.4620  -94.5920   13.2060 C   0  0  2  0  0  0  0  0  0  0  0  0
  -54.5720  -95.0030   12.0120 C   0  0  0  0  0  0  0  0  0  0  0  0
  -54.7390  -96.1090   11.5030 O   0  0  0  0  0  0  0  0  0  0  0  0
  -56.6920  -93.7760   12.7030 C   0  0  2  0  0  0  0  0  0  0  0  0
  -57.7150  -93.5570   13.8410 C   0  0  0  0  0  0  0  0  0  0  0  0
  -57.4200  -94.3890   11.4860 C   0  0  0  0  0  0  0  0  0  0  0  0
  -58.7100  -92.4220   13.5600 C   0  0  0  0  0  0  0  0  0  0  0  0
  -51.2290  -95.6100   12.3330 N   0  0  0  0  0  0  0  0  0  0  0  0
  -50.4060  -96.6890   12.8950 C   0  0  2  0  0  0  0  0  0  0  0  0
  -51.1460  -98.0380   12.9240 C   0  0  0  0  0  0  0  0  0  0  0  0
  -50.5230  -99.0650   12.6620 O   0  0  0  0  0  0  0  0  0  0  0  0
  -49.9430  -96.3230   14.3230 C   0  0  0  0  0  0  0  0  0  0  0  0
  -48.9240  -95.1730   14.3920 C   0  0  0  0  0  0  0  0  0  0  0  0
  -48.7740  -94.6270   15.8230 C   0  0  0  0  0  0  0  0  0  0  0  0
  -47.9490  -93.3330   15.8930 C   0  0  0  0  0  0  0  0  0  0  0  0
  -47.8720  -92.8110   17.2700 N   0  0  0  0  0  0  0  0  0  0  0  0
  -52.4490  -98.0040   13.2550 N   0  0  0  0  0  0  0  0  0  0  0  0
  -53.3060  -99.1780   13.4130 C   0  0  2  0  0  0  0  0  0  0  0  0
  -53.6750  -99.8260   12.0650 C   0  0  0  0  0  0  0  0  0  0  0  0
  -53.5480 -101.0420   11.9310 O   0  0  0  0  0  0  0  0  0  0  0  0
  -54.5400  -98.7740   14.2510 C   0  0  0  0  0  0  0  0  0  0  0  0
  -55.4800  -99.9030   14.6390 C   0  0  0  0  0  0  0  0  0  0  0  0
  -55.2210 -100.6720   15.7950 C   0  0  0  0  0  0  0  0  0  0  0  0
  -56.5230 -100.2990   13.7760 C   0  0  0  0  0  0  0  0  0  0  0  0
  -56.0290 -101.7590   16.1010 C   0  0  0  0  0  0  0  0  0  0  0  0
  -57.3190 -101.3880   14.1010 C   0  0  0  0  0  0  0  0  0  0  0  0
  -57.0780 -102.1110   15.2610 C   0  0  0  0  0  0  0  0  0  0  0  0
  -52.1370  -99.0880    9.1320 N   0  0  0  0  0  0  0  0  0  0  0  0
  -50.9100  -99.0780    8.3220 C   0  0  2  0  0  0  0  0  0  0  0  0
  -51.0430  -98.2060    7.0540 C   0  0  0  0  0  0  0  0  0  0  0  0
  -50.5730  -98.5940    5.9840 O   0  0  0  0  0  0  0  0  0  0  0  0
  -50.4070 -100.5190    8.0240 C   0  0  0  0  0  0  0  0  0  0  0  0
  -50.1880 -101.4020    9.2680 C   0  0  0  0  0  0  0  0  0  0  0  0
  -49.0870 -100.8940   10.2110 C   0  0  0  0  0  0  0  0  0  0  0  0
  -48.9580 -101.7650   11.4690 C   0  0  0  0  0  0  0  0  0  0  0  0
  -47.9500 -101.2270   12.3960 N   0  0  0  0  0  0  0  0  0  0  0  0
  2  1  1  1
  3  2  1  0
  4  3  2  0
  5  2  1  0
  6  5  1  0
  7  6  1  0
  8  7  1  0
  9  8  1  0
 11 10  1  1
 12 11  1  0
 13 12  2  0
 14 11  1  0
 15 14  1  0
 16 15  2  0
 17 15  1  0
 19 18  1  1
 20 19  1  0
 21 20  2  0
 22 19  1  0
 23 22  1  0
 24 23  1  0
 25 23  1  0
 27 26  1  6
 28 27  1  0
 29 28  2  0
 30 27  1  0
 30 31  1  1
 32 30  1  0
 34 33  1  6
 35 34  1  0
 36 35  2  0
 37 34  1  0
 38 37  1  0
 39 38  1  0
 40 39  1  0
 41 40  1  0
 42 35  1  0
 43 42  1  0
 44 43  1  0
 45 44  2  0
 43 46  1  6
 47 46  1  0
 48 47  2  0
 49 47  1  0
 50 49  2  0
 51 49  1  0
 52 48  1  0
 52 50  1  0
 53 50  1  0
 54 51  2  0
 55 54  1  0
 55 53  2  0
 56 44  1  0
 57 56  1  0
 58 57  1  0
 59 58  2  0
 57 60  1  1
 61 58  1  0
 62 61  1  1
 63 62  1  0
 64 63  2  0
 65 62  1  0
 66 65  1  0
 67 65  1  0
 68 63  1  0
 69 68  1  0
 70 69  1  0
 71 70  2  0
 69 72  1  6
 73 72  1  0
 74 73  1  0
 75 74  2  0
 76 74  1  0
 78 77  1  1
 79 78  1  0
 80 79  2  0
 81 78  1  0
 82 81  1  0
 83 82  1  0
 84 83  1  0
 85 84  1  0
 86 85  1  0
 87 85  2  0
 89 88  1  0
 90 89  1  0
 91 90  2  0
 92 90  1  0
 93 92  1  0
 94 93  1  0
 95 94  2  0
 93 96  1  6
 97 96  1  0
 98 97  1  0
 99 97  1  0
101100  1  6
102101  1  0
103102  2  0
104101  1  0
105104  1  0
106105  2  0
107105  1  0
108106  1  0
109107  2  0
110109  1  0
110108  2  0
111102  1  0
112111  1  1
113112  1  0
114113  2  0
115112  1  0
116115  1  0
115117  1  6
118116  1  0
120119  1  1
121120  1  0
122121  2  0
123120  1  0
124123  1  0
125124  1  0
126125  1  0
127126  1  0
128121  1  0
129128  1  0
130129  1  0
131130  2  0
129132  1  6
133132  1  0
134133  2  0
135133  1  0
136134  1  0
137135  2  0
138137  1  0
138136  2  0
140139  1  6
141140  1  0
142141  2  0
143140  1  0
144143  1  0
145144  1  0
146145  1  0
147146  1  0
M  CHG  8   9   1  17  -1  41   1  76  -1  86   1  87   1 127   1 147   1
M  END
$$$$
