
     RDKit          3D

230224  0  0  0  0  0  0  0  0999 V2000
  -51.3130  -68.1420   15.4980 N   0  0  0  0  0  0  0  0  0  0  0  0
  -52.2000  -69.0640   14.7900 C   0  0  2  0  0  0  0  0  0  0  0  0
  -53.1220  -68.3170   13.8190 C   0  0  0  0  0  0  0  0  0  0  0  0
  -53.9260  -67.5030   14.2670 O   0  0  0  0  0  0  0  0  0  0  0  0
  -53.0170  -69.8630   15.8260 C   0  0  0  0  0  0  0  0  0  0  0  0
  -52.1830  -70.9140   16.5780 C   0  0  0  0  0  0  0  0  0  0  0  0
  -53.0130  -71.6750   17.6220 C   0  0  0  0  0  0  0  0  0  0  0  0
  -52.2390  -72.8400   18.2570 C   0  0  0  0  0  0  0  0  0  0  0  0
  -53.0570  -73.5670   19.2420 N   0  0  0  0  0  0  0  0  0  0  0  0
  -55.5960  -69.5640   11.9870 N   0  0  0  0  0  0  0  0  0  0  0  0
  -56.9420  -70.1180   12.1400 C   0  0  2  0  0  0  0  0  0  0  0  0
  -57.7110  -69.5530   13.3520 C   0  0  0  0  0  0  0  0  0  0  0  0
  -58.9320  -69.6930   13.4000 O   0  0  0  0  0  0  0  0  0  0  0  0
  -56.8510  -71.6580   12.1640 C   0  0  0  0  0  0  0  0  0  0  0  0
  -55.9620  -72.2610   13.2230 C   0  0  0  0  0  0  0  0  0  0  0  0
  -56.3310  -72.8640   14.4070 C   0  0  0  0  0  0  0  0  0  0  0  0
  -54.5670  -72.2940   13.1110 N   0  0  0  0  0  0  0  0  0  0  0  0
  -54.1550  -72.9140   14.2080 C   0  0  0  0  0  0  0  0  0  0  0  0
  -55.1570  -73.2660   15.0130 N   0  0  0  0  0  0  0  0  0  0  0  0
  -57.0010  -68.8820   14.2740 N   0  0  0  0  0  0  0  0  0  0  0  0
  -57.5790  -67.9590   15.2490 C   0  0  2  0  0  0  0  0  0  0  0  0
  -57.6710  -66.5950   14.5280 C   0  0  0  0  0  0  0  0  0  0  0  0
  -56.6270  -66.1260   14.0710 O   0  0  0  0  0  0  0  0  0  0  0  0
  -56.6230  -67.8360   16.4640 C   0  0  0  0  0  0  0  0  0  0  0  0
  -56.5230  -68.9850   17.4660 C   0  0  0  0  0  0  0  0  0  0  0  0
  -56.7720  -70.3330   17.1160 C   0  0  0  0  0  0  0  0  0  0  0  0
  -56.1330  -68.6870   18.7900 C   0  0  0  0  0  0  0  0  0  0  0  0
  -56.6350  -71.3570   18.0740 C   0  0  0  0  0  0  0  0  0  0  0  0
  -55.9980  -69.7080   19.7490 C   0  0  0  0  0  0  0  0  0  0  0  0
  -56.2510  -71.0460   19.3920 C   0  0  0  0  0  0  0  0  0  0  0  0
  -56.1230  -72.0370   20.3200 O   0  0  0  0  0  0  0  0  0  0  0  0
  -50.5460  -74.9090   12.7210 N   0  0  0  0  0  0  0  0  0  0  0  0
  -51.0520  -75.7670   11.6500 C   0  0  2  0  0  0  0  0  0  0  0  0
  -50.6930  -75.1150   10.3020 C   0  0  0  0  0  0  0  0  0  0  0  0
  -50.6680  -73.8860   10.2180 O   0  0  0  0  0  0  0  0  0  0  0  0
  -52.5870  -75.9180   11.7940 C   0  0  0  0  0  0  0  0  0  0  0  0
  -53.0850  -76.4080   13.1780 C   0  0  0  0  0  0  0  0  0  0  0  0
  -54.6260  -76.4810   13.2130 C   0  0  0  0  0  0  0  0  0  0  0  0
  -52.4330  -77.7390   13.6100 C   0  0  0  0  0  0  0  0  0  0  0  0
  -61.9330  -74.6030    4.2420 N   0  0  0  0  0  0  0  0  0  0  0  0
  -62.2180  -75.8830    4.8950 C   0  0  2  0  0  0  0  0  0  0  0  0
  -62.3650  -75.7630    6.4220 C   0  0  0  0  0  0  0  0  0  0  0  0
  -63.2790  -76.3700    6.9790 O   0  0  0  0  0  0  0  0  0  0  0  0
  -61.1260  -76.8990    4.5260 C   0  0  0  0  0  0  0  0  0  0  0  0
  -61.5070  -74.9380    7.0490 N   0  0  0  0  0  0  0  0  0  0  0  0
  -61.5950  -74.5570    8.4600 C   0  0  2  0  0  0  0  0  0  0  0  0
  -62.8320  -73.6830    8.7520 C   0  0  0  0  0  0  0  0  0  0  0  0
  -63.5190  -73.9240    9.7430 O   0  0  0  0  0  0  0  0  0  0  0  0
  -60.2840  -73.8530    8.8790 C   0  0  0  0  0  0  0  0  0  0  0  0
  -60.3230  -73.2010   10.2400 C   0  0  0  0  0  0  0  0  0  0  0  0
  -60.4490  -71.8630   10.5520 C   0  0  0  0  0  0  0  0  0  0  0  0
  -60.2740  -73.9410   11.4260 N   0  0  0  0  0  0  0  0  0  0  0  0
  -60.3890  -73.0400   12.3920 C   0  0  0  0  0  0  0  0  0  0  0  0
  -60.5100  -71.7940   11.9320 N   0  0  0  0  0  0  0  0  0  0  0  0
  -65.8180  -73.0940    6.9140 N   0  0  0  0  0  0  0  0  0  0  0  0
  -67.0740  -73.8240    6.7260 C   0  0  2  0  0  0  0  0  0  0  0  0
  -67.3410  -74.8580    7.8300 C   0  0  0  0  0  0  0  0  0  0  0  0
  -68.4950  -75.0150    8.2220 O   0  0  0  0  0  0  0  0  0  0  0  0
  -67.0990  -74.5110    5.3430 C   0  0  0  0  0  0  0  0  0  0  0  0
  -67.1750  -73.5640    4.1300 C   0  0  0  0  0  0  0  0  0  0  0  0
  -68.5420  -72.3690    4.0890 S   0  0  0  0  0  0  0  0  0  0  0  0
  -69.9540  -73.4090    4.5590 C   0  0  0  0  0  0  0  0  0  0  0  0
  -66.2760  -75.5080    8.3330 N   0  0  0  0  0  0  0  0  0  0  0  0
  -66.3380  -76.4470    9.4500 C   0  0  2  0  0  0  0  0  0  0  0  0
  -66.7290  -75.7720   10.7780 C   0  0  0  0  0  0  0  0  0  0  0  0
  -67.5500  -76.3310   11.5000 O   0  0  0  0  0  0  0  0  0  0  0  0
  -65.0030  -77.2080    9.5540 C   0  0  0  0  0  0  0  0  0  0  0  0
  -64.9880  -78.0830   10.6600 O   0  0  0  0  0  0  0  0  0  0  0  0
  -66.1650  -74.5850   11.0620 N   0  0  0  0  0  0  0  0  0  0  0  0
  -66.4470  -73.8250   12.2820 C   0  0  2  0  0  0  0  0  0  0  0  0
  -67.8580  -73.2070   12.2830 C   0  0  0  0  0  0  0  0  0  0  0  0
  -68.4620  -73.1400   13.3520 O   0  0  0  0  0  0  0  0  0  0  0  0
  -65.3810  -72.7530   12.5640 C   0  0  0  0  0  0  0  0  0  0  0  0
  -63.8150  -73.5370   13.0310 S   0  0  0  0  0  0  0  0  0  0  0  0
  -70.4160  -74.7870   10.6550 N   0  0  0  0  0  0  0  0  0  0  0  0
  -71.2000  -76.0100   10.8550 C   0  0  2  0  0  0  0  0  0  0  0  0
  -71.1280  -76.5700   12.2850 C   0  0  0  0  0  0  0  0  0  0  0  0
  -72.0890  -77.2100   12.7080 O   0  0  0  0  0  0  0  0  0  0  0  0
  -70.7930  -77.0750    9.8220 C   0  0  0  0  0  0  0  0  0  0  0  0
  -71.3410  -76.8020    8.4150 C   0  0  0  0  0  0  0  0  0  0  0  0
  -71.0920  -77.9690    7.4560 C   0  0  0  0  0  0  0  0  0  0  0  0
  -71.7180  -77.7330    6.0740 C   0  0  0  0  0  0  0  0  0  0  0  0
  -71.5260  -78.8960    5.1930 N   0  0  0  0  0  0  0  0  0  0  0  0
  -70.0280  -76.2940   13.0050 N   0  0  0  0  0  0  0  0  0  0  0  0
  -69.8450  -76.6050   14.4230 C   0  0  2  0  0  0  0  0  0  0  0  0
  -70.6910  -75.6810   15.3160 C   0  0  0  0  0  0  0  0  0  0  0  0
  -71.2980  -76.1570   16.2750 O   0  0  0  0  0  0  0  0  0  0  0  0
  -68.3390  -76.5430   14.7580 C   0  0  0  0  0  0  0  0  0  0  0  0
  -67.9890  -76.9100   16.2180 C   0  0  0  0  0  0  0  0  0  0  0  0
  -66.4910  -76.9900   16.5530 C   0  0  0  0  0  0  0  0  0  0  0  0
  -65.6490  -76.9790   15.6270 O   0  0  0  0  0  0  0  0  0  0  0  0
  -66.1990  -77.0630   17.7670 O   0  0  0  0  0  0  0  0  0  0  0  0
  -70.7560  -74.3900   14.9460 N   0  0  0  0  0  0  0  0  0  0  0  0
  -71.6340  -73.3930   15.5520 C   0  0  2  0  0  0  0  0  0  0  0  0
  -73.1220  -73.6730   15.2860 C   0  0  0  0  0  0  0  0  0  0  0  0
  -73.9300  -73.5090   16.1950 O   0  0  0  0  0  0  0  0  0  0  0  0
  -71.2440  -72.0000   15.0380 C   0  0  0  0  0  0  0  0  0  0  0  0
  -74.3370  -76.7400   14.5720 N   0  0  0  0  0  0  0  0  0  0  0  0
  -74.5790  -77.9840   15.3080 C   0  0  2  0  0  0  0  0  0  0  0  0
  -74.9650  -77.7510   16.7820 C   0  0  0  0  0  0  0  0  0  0  0  0
  -75.7210  -78.5500   17.3350 O   0  0  0  0  0  0  0  0  0  0  0  0
  -73.3620  -78.9130   15.1790 C   0  0  0  0  0  0  0  0  0  0  0  0
  -74.4860  -76.6390   17.3660 N   0  0  0  0  0  0  0  0  0  0  0  0
  -74.8740  -76.1570   18.6910 C   0  0  2  0  0  0  0  0  0  0  0  0
  -76.2450  -75.4570   18.6560 C   0  0  0  0  0  0  0  0  0  0  0  0
  -77.0880  -75.7720   19.4930 O   0  0  0  0  0  0  0  0  0  0  0  0
  -73.7760  -75.2110   19.2330 C   0  0  0  0  0  0  0  0  0  0  0  0
  -72.4440  -75.9210   19.5690 C   0  0  0  0  0  0  0  0  0  0  0  0
  -71.2690  -74.9280   19.6720 C   0  0  0  0  0  0  0  0  0  0  0  0
  -72.5660  -76.8170   20.8150 C   0  0  0  0  0  0  0  0  0  0  0  0
  -77.3830  -78.3490   13.0090 N   0  0  0  0  0  0  0  0  0  0  0  0
  -76.8770  -78.1510   11.6510 C   0  0  2  0  0  0  0  0  0  0  0  0
  -77.9780  -78.0610   10.5690 C   0  0  0  0  0  0  0  0  0  0  0  0
  -77.6540  -78.0900    9.3840 O   0  0  0  0  0  0  0  0  0  0  0  0
  -75.7540  -79.1750   11.3300 C   0  0  0  0  0  0  0  0  0  0  0  0
  -74.6880  -78.5690   10.6220 O   0  0  0  0  0  0  0  0  0  0  0  0
  -77.2150  -77.1690    6.5240 N   0  0  0  0  0  0  0  0  0  0  0  0
  -77.3950  -78.3300    5.6400 C   0  0  2  0  0  0  0  0  0  0  0  0
  -78.5220  -78.0800    4.6170 C   0  0  0  0  0  0  0  0  0  0  0  0
  -78.4600  -78.6550    3.5310 O   0  0  0  0  0  0  0  0  0  0  0  0
  -77.6700  -79.6100    6.4710 C   0  0  0  0  0  0  0  0  0  0  0  0
  -76.4910  -80.1630    7.2940 C   0  0  0  0  0  0  0  0  0  0  0  0
  -75.3750  -79.4390    7.4100 N   0  0  0  0  0  0  0  0  0  0  0  0
  -76.5940  -81.2580    7.8400 O   0  0  0  0  0  0  0  0  0  0  0  0
  -78.3050  -74.0220   21.7750 N   0  0  0  0  0  0  0  0  0  0  0  0
  -77.1190  -73.7010   22.5720 C   0  0  2  0  0  0  0  0  0  0  0  0
  -76.3350  -72.5670   21.8950 C   0  0  0  0  0  0  0  0  0  0  0  0
  -76.4020  -72.4180   20.6740 O   0  0  0  0  0  0  0  0  0  0  0  0
  -76.2030  -74.9360   22.7350 C   0  0  0  0  0  0  0  0  0  0  0  0
  -76.8160  -76.1630   23.3850 C   0  0  0  0  0  0  0  0  0  0  0  0
  -77.3550  -76.0900   24.6870 C   0  0  0  0  0  0  0  0  0  0  0  0
  -76.8140  -77.3970   22.7020 C   0  0  0  0  0  0  0  0  0  0  0  0
  -77.8970  -77.2380   25.2970 C   0  0  0  0  0  0  0  0  0  0  0  0
  -77.3280  -78.5510   23.3240 C   0  0  0  0  0  0  0  0  0  0  0  0
  -77.8770  -78.4710   24.6170 C   0  0  0  0  0  0  0  0  0  0  0  0
  -78.3810  -79.5930   25.2080 O   0  0  0  0  0  0  0  0  0  0  0  0
  -66.1550  -69.7720   22.7170 N   0  0  0  0  0  0  0  0  0  0  0  0
  -64.8250  -70.2490   23.0610 C   0  0  2  0  0  0  0  0  0  0  0  0
  -64.2090  -69.1800   23.9680 C   0  0  0  0  0  0  0  0  0  0  0  0
  -63.9020  -68.0890   23.4900 O   0  0  0  0  0  0  0  0  0  0  0  0
  -63.9870  -70.4650   21.7850 C   0  0  0  0  0  0  0  0  0  0  0  0
  -64.5010  -71.5930   20.8800 C   0  0  0  0  0  0  0  0  0  0  0  0
  -63.5690  -71.8360   19.6880 C   0  0  0  0  0  0  0  0  0  0  0  0
  -64.0500  -72.9230   18.8220 N   0  0  0  0  0  0  0  0  0  0  0  0
  -63.4730  -73.3690   17.6890 C   0  0  0  0  0  0  0  0  0  0  0  0
  -62.3380  -72.8400   17.2070 N   0  0  0  0  0  0  0  0  0  0  0  0
  -64.0500  -74.3730   17.0230 N   0  0  0  0  0  0  0  0  0  0  0  0
  -53.9820  -74.1170   30.3650 N   0  0  0  0  0  0  0  0  0  0  0  0
  -53.2030  -74.9980   29.4880 C   0  0  2  0  0  0  0  0  0  0  0  0
  -53.9480  -75.4070   28.2020 C   0  0  0  0  0  0  0  0  0  0  0  0
  -53.3200  -75.5120   27.1490 O   0  0  0  0  0  0  0  0  0  0  0  0
  -52.7250  -76.2100   30.3220 C   0  0  0  0  0  0  0  0  0  0  0  0
  -51.9320  -77.2890   29.5440 C   0  0  0  0  0  0  0  0  0  0  0  0
  -51.3600  -78.4370   30.3960 C   0  0  0  0  0  0  0  0  0  0  0  0
  -50.6450  -79.2680   29.7950 O   0  0  0  0  0  0  0  0  0  0  0  0
  -51.6330  -78.4880   31.6170 O   0  0  0  0  0  0  0  0  0  0  0  0
  -55.2710  -75.6160   28.3160 N   0  0  0  0  0  0  0  0  0  0  0  0
  -56.1830  -75.9550   27.2180 C   0  0  2  0  0  0  0  0  0  0  0  0
  -56.3410  -74.7870   26.2130 C   0  0  0  0  0  0  0  0  0  0  0  0
  -56.2520  -73.6340   26.6410 O   0  0  0  0  0  0  0  0  0  0  0  0
  -57.5460  -76.3660   27.8200 C   0  0  0  0  0  0  0  0  0  0  0  0
  -58.1860  -75.3360   28.7720 C   0  0  0  0  0  0  0  0  0  0  0  0
  -59.4700  -75.8650   29.4280 C   0  0  0  0  0  0  0  0  0  0  0  0
  -59.8650  -75.0410   30.5850 N   0  0  0  0  0  0  0  0  0  0  0  0
  -60.7910  -75.3380   31.5170 C   0  0  0  0  0  0  0  0  0  0  0  0
  -61.5290  -76.4580   31.4600 N   0  0  0  0  0  0  0  0  0  0  0  0
  -60.9790  -74.4920   32.5370 N   0  0  0  0  0  0  0  0  0  0  0  0
  -56.5980  -75.0870   24.9130 N   0  0  0  0  0  0  0  0  0  0  0  0
  -56.8420  -74.0560   23.8790 C   0  0  2  0  0  0  0  0  0  0  0  0
  -57.9620  -73.0460   24.1940 C   0  0  0  0  0  0  0  0  0  0  0  0
  -57.7600  -71.8510   23.9880 O   0  0  0  0  0  0  0  0  0  0  0  0
  -57.1650  -74.8640   22.6080 C   0  0  0  0  0  0  0  0  0  0  0  0
  -56.4890  -76.2030   22.8200 C   0  0  0  0  0  0  0  0  0  0  0  0
  -56.6380  -76.4280   24.3180 C   0  0  0  0  0  0  0  0  0  0  0  0
  -59.1030  -73.5520   24.6890 N   0  0  0  0  0  0  0  0  0  0  0  0
  -60.3000  -72.7830   25.0300 C   0  0  2  0  0  0  0  0  0  0  0  0
  -61.2880  -73.6450   25.8310 C   0  0  0  0  0  0  0  0  0  0  0  0
  -61.1770  -74.8720   25.8430 O   0  0  0  0  0  0  0  0  0  0  0  0
  -60.9620  -72.1740   23.7630 C   0  0  0  0  0  0  0  0  0  0  0  0
  -61.3310  -73.1490   22.6530 C   0  0  0  0  0  0  0  0  0  0  0  0
  -62.5000  -73.9340   22.7430 C   0  0  0  0  0  0  0  0  0  0  0  0
  -60.4330  -73.3860   21.5890 C   0  0  0  0  0  0  0  0  0  0  0  0
  -62.7760  -74.8860   21.7710 C   0  0  0  0  0  0  0  0  0  0  0  0
  -60.7280  -74.3420   20.6260 C   0  0  0  0  0  0  0  0  0  0  0  0
  -61.8980  -75.0850   20.7150 C   0  0  0  0  0  0  0  0  0  0  0  0
  -62.2620  -72.9640   26.4530 N   0  0  0  0  0  0  0  0  0  0  0  0
  -63.4060  -73.5610   27.1360 C   0  0  2  0  0  0  0  0  0  0  0  0
  -64.6400  -73.3950   26.2320 C   0  0  0  0  0  0  0  0  0  0  0  0
  -65.0240  -72.2640   25.9320 O   0  0  0  0  0  0  0  0  0  0  0  0
  -63.6780  -72.8480   28.4950 C   0  0  2  0  0  0  0  0  0  0  0  0
  -62.4950  -73.0350   29.4690 C   0  0  0  0  0  0  0  0  0  0  0  0
  -65.0010  -73.2530   29.1880 C   0  0  0  0  0  0  0  0  0  0  0  0
  -62.4360  -71.9800   30.5820 C   0  0  0  0  0  0  0  0  0  0  0  0
  -65.2360  -74.5290   25.8360 N   0  0  0  0  0  0  0  0  0  0  0  0
  -66.4640  -74.6000   25.0480 C   0  0  2  0  0  0  0  0  0  0  0  0
  -67.3450  -75.7020   25.6520 C   0  0  0  0  0  0  0  0  0  0  0  0
  -66.9190  -76.8550   25.7180 O   0  0  0  0  0  0  0  0  0  0  0  0
  -66.1120  -74.8170   23.5570 C   0  0  0  0  0  0  0  0  0  0  0  0
  -67.3130  -75.0690   22.6200 C   0  0  0  0  0  0  0  0  0  0  0  0
  -66.8910  -75.3460   21.1750 C   0  0  0  0  0  0  0  0  0  0  0  0
  -67.5540  -76.3000   20.5180 N   0  0  0  0  0  0  0  0  0  0  0  0
  -65.9940  -74.6960   20.6420 O   0  0  0  0  0  0  0  0  0  0  0  0
  -68.5490  -75.3110   26.0920 N   0  0  0  0  0  0  0  0  0  0  0  0
  -69.5490  -76.1790   26.7150 C   0  0  2  0  0  0  0  0  0  0  0  0
  -70.9380  -75.8540   26.1460 C   0  0  0  0  0  0  0  0  0  0  0  0
  -71.1130  -74.8310   25.4810 O   0  0  0  0  0  0  0  0  0  0  0  0
  -69.5310  -75.9820   28.2500 C   0  0  0  0  0  0  0  0  0  0  0  0
  -68.2310  -76.4350   28.9340 C   0  0  0  0  0  0  0  0  0  0  0  0
  -68.2930  -76.2780   30.4630 C   0  0  0  0  0  0  0  0  0  0  0  0
  -67.0160  -76.7210   31.1980 C   0  0  0  0  0  0  0  0  0  0  0  0
  -66.8070  -78.1800   31.1430 N   0  0  0  0  0  0  0  0  0  0  0  0
  -71.9140  -76.7270   26.4410 N   0  0  0  0  0  0  0  0  0  0  0  0
  -73.3260  -76.4840   26.1470 C   0  0  2  0  0  0  0  0  0  0  0  0
  -73.9030  -75.4930   27.1670 C   0  0  0  0  0  0  0  0  0  0  0  0
  -73.8610  -75.7650   28.3670 O   0  0  0  0  0  0  0  0  0  0  0  0
  -74.1130  -77.8130   26.1660 C   0  0  0  0  0  0  0  0  0  0  0  0
  -73.6520  -78.8520   25.1230 C   0  0  0  0  0  0  0  0  0  0  0  0
  -74.4600  -80.1620   25.2380 C   0  0  0  0  0  0  0  0  0  0  0  0
  -73.6460  -78.2950   23.6870 C   0  0  0  0  0  0  0  0  0  0  0  0
  -68.8190  -67.9930   16.0290 N   0  0  0  0  0  0  0  0  0  0  0  0
  -68.3470  -68.2190   17.3970 C   0  0  2  0  0  0  0  0  0  0  0  0
  -68.0300  -66.9070   18.1270 C   0  0  0  0  0  0  0  0  0  0  0  0
  -67.5180  -65.9690   17.5140 O   0  0  0  0  0  0  0  0  0  0  0  0
  -67.1010  -69.1360   17.3740 C   0  0  0  0  0  0  0  0  0  0  0  0
  -67.3960  -70.6100   17.5740 C   0  0  0  0  0  0  0  0  0  0  0  0
  -67.5490  -71.4850   16.4770 C   0  0  0  0  0  0  0  0  0  0  0  0
  -67.6570  -71.0890   18.8730 C   0  0  0  0  0  0  0  0  0  0  0  0
  -67.8730  -72.8190   16.7010 C   0  0  0  0  0  0  0  0  0  0  0  0
  -67.9830  -72.4220   19.0750 C   0  0  0  0  0  0  0  0  0  0  0  0
  -68.0830  -73.2850   17.9930 C   0  0  0  0  0  0  0  0  0  0  0  0
  2  1  1  1
  3  2  1  0
  4  3  2  0
  5  2  1  0
  6  5  1  0
  7  6  1  0
  8  7  1  0
  9  8  1  0
 11 10  1  1
 12 11  1  0
 13 12  2  0
 14 11  1  0
 15 14  1  0
 16 15  2  0
 17 15  1  0
 18 17  2  0
 19 16  1  0
 19 18  1  0
 20 12  1  0
 21 20  1  0
 22 21  1  0
 23 22  2  0
 21 24  1  1
 25 24  1  0
 26 25  2  0
 27 25  1  0
 28 26  1  0
 29 27  2  0
 30 28  2  0
 30 29  1  0
 31 30  1  0
 33 32  1  1
 34 33  1  0
 35 34  2  0
 36 33  1  0
 37 36  1  0
 38 37  1  0
 39 37  1  0
 41 40  1  0
 42 41  1  0
 43 42  2  0
 41 44  1  1
 45 42  1  0
 46 45  1  0
 47 46  1  0
 48 47  2  0
 46 49  1  6
 50 49  1  0
 51 50  2  0
 52 50  1  0
 53 52  2  0
 54 51  1  0
 54 53  1  0
 56 55  1  1
 57 56  1  0
 58 57  2  0
 59 56  1  0
 60 59  1  0
 61 60  1  0
 62 61  1  0
 63 57  1  0
 64 63  1  0
 65 64  1  0
 66 65  2  0
 64 67  1  1
 68 67  1  0
 69 65  1  0
 70 69  1  0
 71 70  1  0
 72 71  2  0
 70 73  1  6
 74 73  1  0
 76 75  1  1
 77 76  1  0
 78 77  2  0
 79 76  1  0
 80 79  1  0
 81 80  1  0
 82 81  1  0
 83 82  1  0
 84 77  1  0
 85 84  1  0
 86 85  1  0
 87 86  2  0
 85 88  1  1
 89 88  1  0
 90 89  1  0
 91 90  2  0
 92 90  1  0
 93 86  1  0
 94 93  1  0
 95 94  1  0
 96 95  2  0
 94 97  1  6
 99 98  1  0
100 99  1  0
101100  2  0
 99102  1  1
103100  1  0
104103  1  0
105104  1  0
106105  2  0
104107  1  6
108107  1  0
109108  1  0
110108  1  0
112111  1  1
113112  1  0
114113  2  0
115112  1  0
116115  1  0
118117  1  1
119118  1  0
120119  2  0
121118  1  0
122121  1  0
123122  1  0
124122  2  0
126125  1  6
127126  1  0
128127  2  0
129126  1  0
130129  1  0
131130  2  0
132130  1  0
133131  1  0
134132  2  0
135134  1  0
135133  2  0
136135  1  0
138137  1  6
139138  1  0
140139  2  0
141138  1  0
142141  1  0
143142  1  0
144143  1  0
145144  1  0
146145  1  0
147145  2  0
149148  1  1
150149  1  0
151150  2  0
152149  1  0
153152  1  0
154153  1  0
155154  2  0
156154  1  0
157150  1  0
158157  1  0
159158  1  0
160159  2  0
158161  1  1
162161  1  0
163162  1  0
164163  1  0
165164  1  0
166165  1  0
167165  2  0
168159  1  0
169168  1  0
169170  1  1
171170  2  0
172169  1  0
173172  1  0
174173  1  0
174168  1  0
175170  1  0
176175  1  0
177176  1  0
178177  2  0
176179  1  6
180179  1  0
181180  2  0
182180  1  0
183181  1  0
184182  2  0
185184  1  0
185183  2  0
186177  1  0
187186  1  6
188187  1  0
189188  2  0
190187  1  0
191190  1  0
190192  1  1
193191  1  0
194188  1  0
195194  1  0
196195  1  0
197196  2  0
195198  1  6
199198  1  0
200199  1  0
201200  1  0
202200  2  0
203196  1  0
204203  1  0
205204  1  0
206205  2  0
204207  1  1
208207  1  0
209208  1  0
210209  1  0
211210  1  0
212205  1  0
213212  1  0
214213  1  0
215214  2  0
213216  1  1
217216  1  0
218217  1  0
219217  1  0
221220  1  6
222221  1  0
223222  2  0
224221  1  0
225224  1  0
226225  2  0
227225  1  0
228226  1  0
229227  2  0
230229  1  0
230228  2  0
M  CHG  8   9   1  83   1  92  -1 146   1 147   1 156  -1 166   1 167   1
M  CHG  1 211   1
M  END
$$$$
