
     RDKit          3D

116113  0  0  0  0  0  0  0  0999 V2000
   22.9770  101.1460   15.7820 N   0  0  0  0  0  0  0  0  0  0  0  0
   22.0210  102.1610   15.3800 C   0  0  2  0  0  0  0  0  0  0  0  0
   20.8950  102.2330   16.4100 C   0  0  0  0  0  0  0  0  0  0  0  0
   20.2290  101.2300   16.6810 O   0  0  0  0  0  0  0  0  0  0  0  0
   21.4930  101.9270   13.9590 C   0  0  0  0  0  0  0  0  0  0  0  0
   20.8350  103.1830   13.4030 C   0  0  0  0  0  0  0  0  0  0  0  0
   20.2240  103.0020   12.0240 C   0  0  0  0  0  0  0  0  0  0  0  0
   19.1700  104.0740   11.7610 C   0  0  0  0  0  0  0  0  0  0  0  0
   18.0080  103.9360   12.6930 N   0  0  0  0  0  0  0  0  0  0  0  0
   20.7120  103.4150   16.9960 N   0  0  0  0  0  0  0  0  0  0  0  0
   19.6830  103.6300   18.0100 C   0  0  2  0  0  0  0  0  0  0  0  0
   18.2940  103.5180   17.4060 C   0  0  0  0  0  0  0  0  0  0  0  0
   17.9860  104.1650   16.4040 O   0  0  0  0  0  0  0  0  0  0  0  0
   19.8450  105.0020   18.6500 C   0  0  0  0  0  0  0  0  0  0  0  0
   19.0270  105.2310   19.9030 C   0  0  0  0  0  0  0  0  0  0  0  0
   17.6430  105.3880   19.8490 C   0  0  0  0  0  0  0  0  0  0  0  0
   19.6500  105.3250   21.1410 C   0  0  0  0  0  0  0  0  0  0  0  0
   16.9060  105.6120   20.9960 C   0  0  0  0  0  0  0  0  0  0  0  0
   18.9220  105.5490   22.2930 C   0  0  0  0  0  0  0  0  0  0  0  0
   17.5530  105.6910   22.2190 C   0  0  0  0  0  0  0  0  0  0  0  0
   16.8450  105.9170   23.3770 O   0  0  0  0  0  0  0  0  0  0  0  0
   17.4620  102.6970   18.0430 N   0  0  0  0  0  0  0  0  0  0  0  0
   16.1240  102.3870   17.5490 C   0  0  0  0  0  0  0  0  0  0  0  0
   16.1040  101.0710   16.7940 C   0  0  0  0  0  0  0  0  0  0  0  0
   15.0980  100.3540   16.8060 O   0  0  0  0  0  0  0  0  0  0  0  0
   17.2220  100.7510   16.1440 N   0  0  0  0  0  0  0  0  0  0  0  0
   17.3100   99.5730   15.2940 C   0  0  2  0  0  0  0  0  0  0  0  0
   17.8850   98.4090   16.0600 C   0  0  0  0  0  0  0  0  0  0  0  0
   17.1930   97.4140   16.2330 O   0  0  0  0  0  0  0  0  0  0  0  0
   18.1230   99.8480   14.0190 C   0  0  0  0  0  0  0  0  0  0  0  0
   17.5940   99.1420   12.7760 C   0  0  0  0  0  0  0  0  0  0  0  0
   18.1220   99.7470   11.4720 C   0  0  0  0  0  0  0  0  0  0  0  0
   19.1820   99.3430   10.9680 O   0  0  0  0  0  0  0  0  0  0  0  0
   17.3730  100.7080   10.9040 N   0  0  0  0  0  0  0  0  0  0  0  0
   16.5490   95.2180   17.8820 N   0  0  0  0  0  0  0  0  0  0  0  0
   15.6710   95.4910   19.0000 C   0  0  2  0  0  0  0  0  0  0  0  0
   14.4520   94.5920   18.8800 C   0  0  0  0  0  0  0  0  0  0  0  0
   14.0040   94.2800   17.7740 O   0  0  0  0  0  0  0  0  0  0  0  0
   15.2400   96.9620   19.0170 C   0  0  0  0  0  0  0  0  0  0  0  0
   16.5360   98.2050   19.2730 S   0  0  0  0  0  0  0  0  0  0  0  0
   13.9530   94.1550   20.0310 N   0  0  0  0  0  0  0  0  0  0  0  0
   12.6540   93.4940   20.1620 C   0  0  2  0  0  0  0  0  0  0  0  0
   11.5350   94.4760   19.8110 C   0  0  0  0  0  0  0  0  0  0  0  0
   11.6110   95.6690   20.1300 O   0  0  0  0  0  0  0  0  0  0  0  0
   12.4810   92.9700   21.6050 C   0  0  2  0  0  0  0  0  0  0  0  0
   13.1400   91.7040   21.7270 O   0  0  0  0  0  0  0  0  0  0  0  0
   11.0160   92.8190   22.0040 C   0  0  0  0  0  0  0  0  0  0  0  0
   10.5030   93.9860   19.1410 N   0  0  0  0  0  0  0  0  0  0  0  0
    9.3820   94.8350   18.7740 C   0  0  2  0  0  0  0  0  0  0  0  0
    8.2170   94.3900   19.6640 C   0  0  0  0  0  0  0  0  0  0  0  0
    8.0990   93.2050   19.9760 O   0  0  0  0  0  0  0  0  0  0  0  0
    9.0820   94.6440   17.2840 C   0  0  0  0  0  0  0  0  0  0  0  0
    9.2340   95.8850   16.4270 C   0  0  0  0  0  0  0  0  0  0  0  0
    9.0340   95.5610   14.9500 C   0  0  0  0  0  0  0  0  0  0  0  0
    7.9420   96.3700   14.3640 N   0  0  0  0  0  0  0  0  0  0  0  0
    7.2620   96.0740   13.2460 C   0  0  0  0  0  0  0  0  0  0  0  0
    7.5380   94.9830   12.5480 N   0  0  0  0  0  0  0  0  0  0  0  0
    6.2840   96.8640   12.8280 N   0  0  0  0  0  0  0  0  0  0  0  0
    7.3680   95.3120   20.1010 N   0  0  0  0  0  0  0  0  0  0  0  0
    6.2890   94.9080   20.9960 C   0  0  2  0  0  0  0  0  0  0  0  0
    5.1090   94.2380   20.2800 C   0  0  0  0  0  0  0  0  0  0  0  0
    4.7350   94.6520   19.1840 O   0  0  0  0  0  0  0  0  0  0  0  0
    5.8230   96.0780   21.8590 C   0  0  0  0  0  0  0  0  0  0  0  0
    6.9610   96.5440   23.1920 S   0  0  0  0  0  0  0  0  0  0  0  0
    4.5560   93.1890   20.9030 N   0  0  0  0  0  0  0  0  0  0  0  0
    3.3200   92.5180   20.4640 C   0  0  2  0  0  0  0  0  0  0  0  0
    2.0820   93.2990   20.8740 C   0  0  0  0  0  0  0  0  0  0  0  0
    2.1930   94.3450   21.5040 O   0  0  0  0  0  0  0  0  0  0  0  0
    3.2090   91.1490   21.1040 C   0  0  0  0  0  0  0  0  0  0  0  0
    3.8960   90.0760   20.3190 C   0  0  0  0  0  0  0  0  0  0  0  0
    3.9180   90.1210   19.0510 O   0  0  0  0  0  0  0  0  0  0  0  0
    4.3890   89.1550   21.0000 O   0  0  0  0  0  0  0  0  0  0  0  0
    0.9010   92.7780   20.5530 N   0  0  0  0  0  0  0  0  0  0  0  0
   -0.3010   93.5310   20.8040 C   0  0  2  0  0  0  0  0  0  0  0  0
   -0.4480   93.7570   22.2730 C   0  0  0  0  0  0  0  0  0  0  0  0
   -0.6170   94.8810   22.7170 O   0  0  0  0  0  0  0  0  0  0  0  0
   -1.5540   92.8480   20.2630 C   0  0  0  0  0  0  0  0  0  0  0  0
   -2.0780   91.8950   21.1790 O   0  0  0  0  0  0  0  0  0  0  0  0
    0.9550   94.4800   24.6110 N   0  0  0  0  0  0  0  0  0  0  0  0
    2.1030   95.0450   25.2880 C   0  0  2  0  0  0  0  0  0  0  0  0
    2.3220   96.5390   25.0230 C   0  0  0  0  0  0  0  0  0  0  0  0
    1.7910   97.0930   24.0560 O   0  0  0  0  0  0  0  0  0  0  0  0
    3.3410   94.2260   24.8990 C   0  0  0  0  0  0  0  0  0  0  0  0
    3.1340   92.7130   25.0310 C   0  0  0  0  0  0  0  0  0  0  0  0
    4.2910   91.8710   24.4980 C   0  0  0  0  0  0  0  0  0  0  0  0
    4.5280   91.8270   23.2750 O   0  0  0  0  0  0  0  0  0  0  0  0
    4.9640   91.2170   25.3120 O   0  0  0  0  0  0  0  0  0  0  0  0
    3.0730   97.1900   25.9130 N   0  0  0  0  0  0  0  0  0  0  0  0
    3.5590   98.5620   25.6940 C   0  0  2  0  0  0  0  0  0  0  0  0
    5.0610   98.6610   25.8780 C   0  0  0  0  0  0  0  0  0  0  0  0
    5.6990   97.7480   26.3970 O   0  0  0  0  0  0  0  0  0  0  0  0
    2.8980   99.6000   26.6040 C   0  0  0  0  0  0  0  0  0  0  0  0
    1.7460  100.2510   25.8650 C   0  0  0  0  0  0  0  0  0  0  0  0
    2.4570   98.9790   27.9290 C   0  0  0  0  0  0  0  0  0  0  0  0
    5.6240   99.7800   25.4520 N   0  0  0  0  0  0  0  0  0  0  0  0
    7.0650   99.9200   25.4080 C   0  0  2  0  0  0  0  0  0  0  0  0
    7.5240  100.6370   26.6700 C   0  0  0  0  0  0  0  0  0  0  0  0
    7.6010  101.8700   26.7050 O   0  0  0  0  0  0  0  0  0  0  0  0
    7.4520  100.6860   24.1460 C   0  0  0  0  0  0  0  0  0  0  0  0
    8.9360  100.7730   23.8770 C   0  0  0  0  0  0  0  0  0  0  0  0
    9.2610  101.8430   22.8560 C   0  0  0  0  0  0  0  0  0  0  0  0
    9.7970  101.4710   21.7910 O   0  0  0  0  0  0  0  0  0  0  0  0
    8.9760  103.0470   23.1080 O   0  0  0  0  0  0  0  0  0  0  0  0
   14.6640   96.5670   24.0880 N   0  0  0  0  0  0  0  0  0  0  0  0
   13.3630   97.1360   24.4320 C   0  0  2  0  0  0  0  0  0  0  0  0
   12.5970   96.3140   25.4570 C   0  0  0  0  0  0  0  0  0  0  0  0
   12.5370   95.0920   25.3550 O   0  0  0  0  0  0  0  0  0  0  0  0
   12.5130   97.4010   23.1680 C   0  0  2  0  0  0  0  0  0  0  0  0
   11.1770   96.9220   23.3540 O   0  0  0  0  0  0  0  0  0  0  0  0
   13.0980   96.7000   22.0020 C   0  0  0  0  0  0  0  0  0  0  0  0
    9.0480   95.4580   26.6230 N   0  0  0  0  0  0  0  0  0  0  0  0
    7.6100   95.4370   26.3860 C   0  0  2  0  0  0  0  0  0  0  0  0
    6.9220   94.9670   27.6390 C   0  0  0  0  0  0  0  0  0  0  0  0
    7.2440   93.9020   28.1470 O   0  0  0  0  0  0  0  0  0  0  0  0
    7.2530   94.4520   25.2780 C   0  0  0  0  0  0  0  0  0  0  0  0
    7.9330   94.8430   23.6690 S   0  0  0  0  0  0  0  0  0  0  0  0
  2  1  1  1
  3  2  1  0
  4  3  2  0
  5  2  1  0
  6  5  1  0
  7  6  1  0
  8  7  1  0
  9  8  1  0
 10  3  1  0
 11 10  1  0
 12 11  1  0
 13 12  2  0
 11 14  1  6
 15 14  1  0
 16 15  2  0
 17 15  1  0
 18 16  1  0
 19 17  2  0
 20 18  2  0
 20 19  1  0
 21 20  1  0
 22 12  1  0
 23 22  1  0
 24 23  1  0
 25 24  2  0
 26 24  1  0
 27 26  1  0
 28 27  1  0
 29 28  2  0
 27 30  1  6
 31 30  1  0
 32 31  1  0
 33 32  2  0
 34 32  1  0
 36 35  1  6
 37 36  1  0
 38 37  2  0
 39 36  1  0
 40 39  1  0
 41 37  1  0
 42 41  1  1
 43 42  1  0
 44 43  2  0
 45 42  1  0
 46 45  1  0
 45 47  1  6
 48 43  1  0
 49 48  1  0
 50 49  1  0
 51 50  2  0
 49 52  1  6
 53 52  1  0
 54 53  1  0
 55 54  1  0
 56 55  1  0
 57 56  1  0
 58 56  2  0
 59 50  1  0
 60 59  1  0
 61 60  1  0
 62 61  2  0
 60 63  1  6
 64 63  1  0
 65 61  1  0
 66 65  1  0
 67 66  1  0
 68 67  2  0
 66 69  1  1
 70 69  1  0
 71 70  2  0
 72 70  1  0
 73 67  1  0
 74 73  1  0
 75 74  1  0
 76 75  2  0
 74 77  1  1
 78 77  1  0
 80 79  1  6
 81 80  1  0
 82 81  2  0
 83 80  1  0
 84 83  1  0
 85 84  1  0
 86 85  2  0
 87 85  1  0
 88 81  1  0
 89 88  1  1
 90 89  1  0
 91 90  2  0
 92 89  1  0
 93 92  1  0
 94 92  1  0
 95 90  1  0
 96 95  1  0
 97 96  1  0
 98 97  2  0
 96 99  1  6
100 99  1  0
101100  1  0
102101  2  0
103101  1  0
105104  1  6
106105  1  0
107106  2  0
108105  1  0
109108  1  0
108110  1  6
112111  1  1
113112  1  0
114113  2  0
115112  1  0
116115  1  0
116 64  1  0
M  END
$$$$
