
     RDKit          3D

259256  0  0  0  0  0  0  0  0999 V2000
  119.2620  187.2040   64.3310 N   0  0  0  0  0  0  0  0  0  0  0  0
  117.7970  186.9830   64.5990 C   0  0  2  0  0  0  0  0  0  0  0  0
  117.0780  186.2320   63.5020 C   0  0  0  0  0  0  0  0  0  0  0  0
  115.9760  185.7240   63.7230 O   0  0  0  0  0  0  0  0  0  0  0  0
  117.0490  188.2940   64.8920 C   0  0  0  0  0  0  0  0  0  0  0  0
  116.8000  189.1350   63.6770 C   0  0  0  0  0  0  0  0  0  0  0  0
  117.6600  190.1360   63.2710 N   0  0  0  0  0  0  0  0  0  0  0  0
  115.7920  189.1150   62.7720 C   0  0  0  0  0  0  0  0  0  0  0  0
  117.1870  190.6970   62.1720 C   0  0  0  0  0  0  0  0  0  0  0  0
  116.0460  190.1090   61.8610 N   0  0  0  0  0  0  0  0  0  0  0  0
  116.2650  182.8450   64.7120 N   0  0  0  0  0  0  0  0  0  0  0  0
  115.5720  182.7260   65.9930 C   0  0  2  0  0  0  0  0  0  0  0  0
  114.4250  181.7260   65.9770 C   0  0  0  0  0  0  0  0  0  0  0  0
  114.1650  181.0940   66.9910 O   0  0  0  0  0  0  0  0  0  0  0  0
  114.9990  184.0780   66.4830 C   0  0  0  0  0  0  0  0  0  0  0  0
  116.0160  184.9480   67.1950 C   0  0  0  0  0  0  0  0  0  0  0  0
  117.1630  184.5280   67.4220 O   0  0  0  0  0  0  0  0  0  0  0  0
  115.6840  186.0870   67.5250 O   0  0  0  0  0  0  0  0  0  0  0  0
  124.9670  187.1000   71.7370 N   0  0  0  0  0  0  0  0  0  0  0  0
  123.6770  187.4340   71.1570 C   0  0  2  0  0  0  0  0  0  0  0  0
  122.6290  186.6600   71.9290 C   0  0  0  0  0  0  0  0  0  0  0  0
  122.8000  185.4780   72.2220 O   0  0  0  0  0  0  0  0  0  0  0  0
  123.5810  187.0640   69.6490 C   0  0  0  0  0  0  0  0  0  0  0  0
  122.1530  187.0860   69.1360 C   0  0  0  0  0  0  0  0  0  0  0  0
  121.5360  188.2640   68.7730 C   0  0  0  0  0  0  0  0  0  0  0  0
  121.4090  185.9210   69.0830 C   0  0  0  0  0  0  0  0  0  0  0  0
  120.2130  188.2640   68.3380 C   0  0  0  0  0  0  0  0  0  0  0  0
  120.1010  185.9130   68.6700 C   0  0  0  0  0  0  0  0  0  0  0  0
  119.5100  187.0830   68.2920 C   0  0  0  0  0  0  0  0  0  0  0  0
  118.2020  187.0420   67.8790 O   0  0  0  0  0  0  0  0  0  0  0  0
  121.5270  187.3260   72.2270 N   0  0  0  0  0  0  0  0  0  0  0  0
  120.4500  186.7260   72.9750 C   0  0  2  0  0  0  0  0  0  0  0  0
  119.2150  186.7100   72.0990 C   0  0  0  0  0  0  0  0  0  0  0  0
  118.8010  187.7460   71.5870 O   0  0  0  0  0  0  0  0  0  0  0  0
  120.2070  187.5190   74.2730 C   0  0  0  0  0  0  0  0  0  0  0  0
  121.1650  187.0930   75.3730 C   0  0  0  0  0  0  0  0  0  0  0  0
  121.1080  188.0090   76.5800 C   0  0  0  0  0  0  0  0  0  0  0  0
  122.2420  187.7080   77.5630 C   0  0  0  0  0  0  0  0  0  0  0  0
  122.1730  186.3580   78.2120 N   0  0  0  0  0  0  0  0  0  0  0  0
  118.6570  185.5250   71.9320 N   0  0  0  0  0  0  0  0  0  0  0  0
  117.4530  185.3350   71.1720 C   0  0  2  0  0  0  0  0  0  0  0  0
  116.4400  186.4080   71.5580 C   0  0  0  0  0  0  0  0  0  0  0  0
  116.2780  186.7520   72.7270 O   0  0  0  0  0  0  0  0  0  0  0  0
  116.9050  183.8810   71.3280 C   0  0  0  0  0  0  0  0  0  0  0  0
  115.4670  183.7910   70.8540 C   0  0  0  0  0  0  0  0  0  0  0  0
  117.7400  182.8780   70.5300 C   0  0  0  0  0  0  0  0  0  0  0  0
  115.8310  187.0000   70.5340 N   0  0  0  0  0  0  0  0  0  0  0  0
  114.8290  188.0590   70.6780 C   0  0  2  0  0  0  0  0  0  0  0  0
  115.3140  189.4580   70.9890 C   0  0  0  0  0  0  0  0  0  0  0  0
  114.4870  190.3560   71.1110 O   0  0  0  0  0  0  0  0  0  0  0  0
  113.7430  187.6490   71.6900 C   0  0  0  0  0  0  0  0  0  0  0  0
  113.0730  186.4930   71.1890 O   0  0  0  0  0  0  0  0  0  0  0  0
  116.6150  189.6810   71.1100 N   0  0  0  0  0  0  0  0  0  0  0  0
  117.0960  190.9960   71.5420 C   0  0  2  0  0  0  0  0  0  0  0  0
  117.9890  191.6370   70.5140 C   0  0  0  0  0  0  0  0  0  0  0  0
  118.3180  191.0380   69.5030 O   0  0  0  0  0  0  0  0  0  0  0  0
  117.8200  190.9020   72.8880 C   0  0  0  0  0  0  0  0  0  0  0  0
  117.1900  189.9160   73.8670 C   0  0  0  0  0  0  0  0  0  0  0  0
  116.5080  190.5720   75.0500 C   0  0  0  0  0  0  0  0  0  0  0  0
  115.8320  191.6180   74.8710 O   0  0  0  0  0  0  0  0  0  0  0  0
  116.6300  190.0000   76.1580 O   0  0  0  0  0  0  0  0  0  0  0  0
  118.3810  192.8690   70.7970 N   0  0  0  0  0  0  0  0  0  0  0  0
  118.9990  193.7410   69.8130 C   0  0  0  0  0  0  0  0  0  0  0  0
  120.4980  193.6690   69.7360 C   0  0  0  0  0  0  0  0  0  0  0  0
  121.0670  193.9800   68.6950 O   0  0  0  0  0  0  0  0  0  0  0  0
  123.6340  191.4600   67.1120 N   0  0  0  0  0  0  0  0  0  0  0  0
  122.7480  190.8230   66.1380 C   0  0  2  0  0  0  0  0  0  0  0  0
  123.5150  190.6450   64.8210 C   0  0  0  0  0  0  0  0  0  0  0  0
  123.4030  191.4330   63.8660 O   0  0  0  0  0  0  0  0  0  0  0  0
  121.4420  191.6310   65.9480 C   0  0  0  0  0  0  0  0  0  0  0  0
  120.4280  190.9090   65.0660 C   0  0  0  0  0  0  0  0  0  0  0  0
  120.6580  189.7170   64.7730 O   0  0  0  0  0  0  0  0  0  0  0  0
  119.4000  191.5260   64.6600 O   0  0  0  0  0  0  0  0  0  0  0  0
  109.0030  194.2510   52.8170 N   0  0  0  0  0  0  0  0  0  0  0  0
  107.7060  194.9020   52.6080 C   0  0  2  0  0  0  0  0  0  0  0  0
  107.8650  196.3310   52.1590 C   0  0  0  0  0  0  0  0  0  0  0  0
  108.8230  197.0020   52.5450 O   0  0  0  0  0  0  0  0  0  0  0  0
  106.8630  194.9710   53.9060 C   0  0  0  0  0  0  0  0  0  0  0  0
  106.4570  193.6220   54.4980 C   0  0  0  0  0  0  0  0  0  0  0  0
  106.7110  192.4130   53.8400 C   0  0  0  0  0  0  0  0  0  0  0  0
  105.8070  193.5820   55.7350 C   0  0  0  0  0  0  0  0  0  0  0  0
  106.3080  191.2060   54.4040 C   0  0  0  0  0  0  0  0  0  0  0  0
  105.3960  192.3810   56.2880 C   0  0  0  0  0  0  0  0  0  0  0  0
  105.6480  191.1860   55.6230 C   0  0  0  0  0  0  0  0  0  0  0  0
  104.1860  198.7850   56.2210 N   0  0  0  0  0  0  0  0  0  0  0  0
  103.8940  197.9910   57.4240 C   0  0  2  0  0  0  0  0  0  0  0  0
  102.8400  196.9440   57.1340 C   0  0  0  0  0  0  0  0  0  0  0  0
  101.8740  197.2330   56.4330 O   0  0  0  0  0  0  0  0  0  0  0  0
  103.4500  198.9130   58.5880 C   0  0  0  0  0  0  0  0  0  0  0  0
  104.6070  199.7060   59.1570 C   0  0  0  0  0  0  0  0  0  0  0  0
  104.2650  200.6060   60.3530 C   0  0  0  0  0  0  0  0  0  0  0  0
  103.2300  200.4430   61.0500 O   0  0  0  0  0  0  0  0  0  0  0  0
  105.1070  201.4740   60.6170 O   0  0  0  0  0  0  0  0  0  0  0  0
  103.0020  195.7310   57.6540 N   0  0  0  0  0  0  0  0  0  0  0  0
  102.0400  194.6380   57.3580 C   0  0  2  0  0  0  0  0  0  0  0  0
  101.7910  194.4970   55.8430 C   0  0  0  0  0  0  0  0  0  0  0  0
  100.6590  194.3150   55.4100 O   0  0  0  0  0  0  0  0  0  0  0  0
  100.6960  194.8280   58.1190 C   0  0  0  0  0  0  0  0  0  0  0  0
  100.7580  194.2960   59.5550 C   0  0  0  0  0  0  0  0  0  0  0  0
   99.3770  194.1510   60.2210 C   0  0  0  0  0  0  0  0  0  0  0  0
   99.4590  193.3520   61.5260 C   0  0  0  0  0  0  0  0  0  0  0  0
   98.6490  193.8750   62.7000 N   0  0  0  0  0  0  0  0  0  0  0  0
  113.8030  205.4830   71.0700 N   0  0  0  0  0  0  0  0  0  0  0  0
  113.6440  204.1540   71.5920 C   0  0  2  0  0  0  0  0  0  0  0  0
  113.8130  204.2110   73.1110 C   0  0  0  0  0  0  0  0  0  0  0  0
  114.7920  203.6990   73.6570 O   0  0  0  0  0  0  0  0  0  0  0  0
  114.6910  203.2340   70.9850 C   0  0  0  0  0  0  0  0  0  0  0  0
  114.4180  202.9280   69.5620 C   0  0  0  0  0  0  0  0  0  0  0  0
  113.4850  201.9650   69.2290 C   0  0  0  0  0  0  0  0  0  0  0  0
  115.0700  203.5910   68.5340 C   0  0  0  0  0  0  0  0  0  0  0  0
  113.2180  201.6740   67.9180 C   0  0  0  0  0  0  0  0  0  0  0  0
  114.7850  203.2990   67.2140 C   0  0  0  0  0  0  0  0  0  0  0  0
  113.8570  202.3410   66.9300 C   0  0  0  0  0  0  0  0  0  0  0  0
  113.5040  202.0070   65.6640 O   0  0  0  0  0  0  0  0  0  0  0  0
  114.5350  200.7530   75.1450 N   0  0  0  0  0  0  0  0  0  0  0  0
  115.7200  199.9330   74.8650 C   0  0  2  0  0  0  0  0  0  0  0  0
  116.9630  200.7810   74.7960 C   0  0  0  0  0  0  0  0  0  0  0  0
  116.9240  201.9610   74.4380 O   0  0  0  0  0  0  0  0  0  0  0  0
  115.5830  199.1350   73.5480 C   0  0  0  0  0  0  0  0  0  0  0  0
  114.1670  198.6800   73.2610 C   0  0  0  0  0  0  0  0  0  0  0  0
  113.7300  197.4000   73.6240 C   0  0  0  0  0  0  0  0  0  0  0  0
  113.2460  199.5510   72.6530 C   0  0  0  0  0  0  0  0  0  0  0  0
  112.4180  196.9920   73.3840 C   0  0  0  0  0  0  0  0  0  0  0  0
  111.9430  199.1580   72.4070 C   0  0  0  0  0  0  0  0  0  0  0  0
  111.5250  197.8770   72.7750 C   0  0  0  0  0  0  0  0  0  0  0  0
  110.2090  197.4970   72.5210 O   0  0  0  0  0  0  0  0  0  0  0  0
  119.5400  204.7790   61.2320 N   0  0  0  0  0  0  0  0  0  0  0  0
  119.2970  205.5440   60.0370 C   0  0  2  0  0  0  0  0  0  0  0  0
  117.8050  205.8320   59.8220 C   0  0  0  0  0  0  0  0  0  0  0  0
  116.9330  204.9610   60.0160 O   0  0  0  0  0  0  0  0  0  0  0  0
  119.8540  204.7950   58.8190 C   0  0  0  0  0  0  0  0  0  0  0  0
  112.8200  203.6990   54.3260 N   0  0  0  0  0  0  0  0  0  0  0  0
  113.2400  202.8020   55.4010 C   0  0  2  0  0  0  0  0  0  0  0  0
  113.2460  201.3700   54.9060 C   0  0  0  0  0  0  0  0  0  0  0  0
  112.5470  201.0260   53.9460 O   0  0  0  0  0  0  0  0  0  0  0  0
  112.2430  202.9330   56.5770 C   0  0  0  0  0  0  0  0  0  0  0  0
  112.7730  202.4100   57.9100 C   0  0  0  0  0  0  0  0  0  0  0  0
  113.9410  201.9660   58.0070 O   0  0  0  0  0  0  0  0  0  0  0  0
  111.9950  202.4950   58.9050 O   0  0  0  0  0  0  0  0  0  0  0  0
  114.0110  200.5330   55.5940 N   0  0  0  0  0  0  0  0  0  0  0  0
  113.8010  199.0860   55.5570 C   0  0  2  0  0  0  0  0  0  0  0  0
  112.5080  198.7130   56.2590 C   0  0  0  0  0  0  0  0  0  0  0  0
  111.8720  199.5290   56.9440 O   0  0  0  0  0  0  0  0  0  0  0  0
  114.9580  198.3710   56.2510 C   0  0  0  0  0  0  0  0  0  0  0  0
  112.1200  197.4570   56.0760 N   0  0  0  0  0  0  0  0  0  0  0  0
  110.9180  196.9230   56.6600 C   0  0  2  0  0  0  0  0  0  0  0  0
  111.0900  195.3880   56.7820 C   0  0  0  0  0  0  0  0  0  0  0  0
  112.1490  194.8530   56.4800 O   0  0  0  0  0  0  0  0  0  0  0  0
  109.6850  197.3250   55.8190 C   0  0  0  0  0  0  0  0  0  0  0  0
  108.0870  197.2540   56.7610 S   0  0  0  0  0  0  0  0  0  0  0  0
  110.0540  194.6870   57.1960 N   0  0  0  0  0  0  0  0  0  0  0  0
  110.1600  193.2740   57.4030 C   0  0  2  0  0  0  0  0  0  0  0  0
  110.5530  192.5310   56.1330 C   0  0  0  0  0  0  0  0  0  0  0  0
  110.0580  192.8540   55.0680 O   0  0  0  0  0  0  0  0  0  0  0  0
  108.8310  192.7250   57.9060 C   0  0  0  0  0  0  0  0  0  0  0  0
  108.9360  191.3280   58.5050 C   0  0  0  0  0  0  0  0  0  0  0  0
  107.7640  191.1490   59.4330 C   0  0  0  0  0  0  0  0  0  0  0  0
  107.2160  189.7330   59.5180 C   0  0  0  0  0  0  0  0  0  0  0  0
  105.8410  189.8830   60.1550 N   0  0  0  0  0  0  0  0  0  0  0  0
  115.5290  192.4370   56.8030 N   0  0  0  0  0  0  0  0  0  0  0  0
  116.4190  192.2960   57.9230 C   0  0  2  0  0  0  0  0  0  0  0  0
  117.4870  191.2630   57.5980 C   0  0  0  0  0  0  0  0  0  0  0  0
  117.2130  190.3020   56.8820 O   0  0  0  0  0  0  0  0  0  0  0  0
  115.6020  192.0220   59.2060 C   0  0  0  0  0  0  0  0  0  0  0  0
  115.1360  190.7090   59.3120 O   0  0  0  0  0  0  0  0  0  0  0  0
  120.9930  195.2100   58.6640 N   0  0  0  0  0  0  0  0  0  0  0  0
  119.6010  195.5050   59.0250 C   0  0  2  0  0  0  0  0  0  0  0  0
  119.1260  194.6300   60.1940 C   0  0  0  0  0  0  0  0  0  0  0  0
  119.1480  193.3910   60.1100 O   0  0  0  0  0  0  0  0  0  0  0  0
  118.6940  195.4170   57.7500 C   0  0  2  0  0  0  0  0  0  0  0  0
  119.2350  196.2960   56.7570 O   0  0  0  0  0  0  0  0  0  0  0  0
  117.2840  195.8550   58.0330 C   0  0  0  0  0  0  0  0  0  0  0  0
  118.7450  195.2770   61.3070 N   0  0  0  0  0  0  0  0  0  0  0  0
  118.5870  194.5400   62.5730 C   0  0  2  0  0  0  0  0  0  0  0  0
  117.1910  194.6220   63.1870 C   0  0  0  0  0  0  0  0  0  0  0  0
  116.5120  193.6160   63.3100 O   0  0  0  0  0  0  0  0  0  0  0  0
  119.6280  194.9810   63.6100 C   0  0  0  0  0  0  0  0  0  0  0  0
  119.5840  194.1440   64.7780 O   0  0  0  0  0  0  0  0  0  0  0  0
  116.7910  195.8130   63.5980 N   0  0  0  0  0  0  0  0  0  0  0  0
  115.5100  195.9810   64.2850 C   0  0  2  0  0  0  0  0  0  0  0  0
  114.9700  197.3820   64.1100 C   0  0  0  0  0  0  0  0  0  0  0  0
  115.6630  198.2890   63.6390 O   0  0  0  0  0  0  0  0  0  0  0  0
  115.5540  195.5240   65.7740 C   0  0  0  0  0  0  0  0  0  0  0  0
  116.4650  196.2140   66.6770 C   0  0  0  0  0  0  0  0  0  0  0  0
  117.8150  196.0460   66.7660 C   0  0  0  0  0  0  0  0  0  0  0  0
  116.1120  197.1610   67.7050 C   0  0  0  0  0  0  0  0  0  0  0  0
  118.3240  196.8730   67.7530 N   0  0  0  0  0  0  0  0  0  0  0  0
  117.2910  197.5560   68.3370 C   0  0  0  0  0  0  0  0  0  0  0  0
  114.9120  197.7410   68.1140 C   0  0  0  0  0  0  0  0  0  0  0  0
  117.3110  198.4960   69.3570 C   0  0  0  0  0  0  0  0  0  0  0  0
  114.9380  198.6740   69.1600 C   0  0  0  0  0  0  0  0  0  0  0  0
  116.1390  199.0430   69.7570 C   0  0  0  0  0  0  0  0  0  0  0  0
  113.6930  197.5340   64.4080 N   0  0  0  0  0  0  0  0  0  0  0  0
  113.1130  198.8450   64.4270 C   0  0  0  0  0  0  0  0  0  0  0  0
  111.6080  198.8240   64.6200 C   0  0  0  0  0  0  0  0  0  0  0  0
  110.9570  197.7770   64.4820 O   0  0  0  0  0  0  0  0  0  0  0  0
  111.0720  200.0120   64.9080 N   0  0  0  0  0  0  0  0  0  0  0  0
  109.6740  200.1710   65.2650 C   0  0  2  0  0  0  0  0  0  0  0  0
  108.9160  200.5950   64.0280 C   0  0  0  0  0  0  0  0  0  0  0  0
  109.0410  201.7400   63.5750 O   0  0  0  0  0  0  0  0  0  0  0  0
  109.5150  201.2510   66.3320 C   0  0  0  0  0  0  0  0  0  0  0  0
  108.1240  201.2680   66.9330 C   0  0  0  0  0  0  0  0  0  0  0  0
  107.9990  200.2710   68.0690 C   0  0  0  0  0  0  0  0  0  0  0  0
  108.7440  200.4750   69.0470 O   0  0  0  0  0  0  0  0  0  0  0  0
  107.1750  199.3170   67.9850 O   0  0  0  0  0  0  0  0  0  0  0  0
  108.1170  199.6720   63.5060 N   0  0  0  0  0  0  0  0  0  0  0  0
  107.3410  199.9490   62.3410 C   0  0  0  0  0  0  0  0  0  0  0  0
  108.3010  200.1380   61.1830 C   0  0  0  0  0  0  0  0  0  0  0  0
  109.4210  199.6370   61.2190 O   0  0  0  0  0  0  0  0  0  0  0  0
  107.8470  200.8650   60.1820 N   0  0  0  0  0  0  0  0  0  0  0  0
  108.6160  201.1020   58.9540 C   0  0  2  0  0  0  0  0  0  0  0  0
  108.3010  202.5040   58.4600 C   0  0  0  0  0  0  0  0  0  0  0  0
  107.1280  202.8430   58.2890 O   0  0  0  0  0  0  0  0  0  0  0  0
  108.2490  200.0830   57.8880 C   0  0  0  0  0  0  0  0  0  0  0  0
  108.4790  198.3700   58.4410 S   0  0  0  0  0  0  0  0  0  0  0  0
  109.3460  203.3230   58.3130 N   0  0  0  0  0  0  0  0  0  0  0  0
  109.2670  204.5960   57.6260 C   0  0  2  0  0  0  0  0  0  0  0  0
  108.4510  205.6400   58.3780 C   0  0  0  0  0  0  0  0  0  0  0  0
  107.9440  206.5890   57.7990 O   0  0  0  0  0  0  0  0  0  0  0  0
  108.6990  204.3870   56.2270 C   0  0  0  0  0  0  0  0  0  0  0  0
  111.5980  208.0320   63.6900 N   0  0  0  0  0  0  0  0  0  0  0  0
  111.6650  206.6510   64.1070 C   0  0  2  0  0  0  0  0  0  0  0  0
  112.6080  205.8640   63.2140 C   0  0  0  0  0  0  0  0  0  0  0  0
  112.1840  205.0530   62.4180 O   0  0  0  0  0  0  0  0  0  0  0  0
  110.2720  206.0560   64.1380 C   0  0  0  0  0  0  0  0  0  0  0  0
  110.1720  204.7720   64.9100 C   0  0  0  0  0  0  0  0  0  0  0  0
  110.2360  204.9740   66.4250 C   0  0  0  0  0  0  0  0  0  0  0  0
  109.2730  205.3860   67.0330 O   0  0  0  0  0  0  0  0  0  0  0  0
  111.3720  204.6530   67.0260 N   0  0  0  0  0  0  0  0  0  0  0  0
  113.9060  206.0890   63.3840 N   0  0  0  0  0  0  0  0  0  0  0  0
  114.9200  205.5240   62.5230 C   0  0  2  0  0  0  0  0  0  0  0  0
  115.0890  204.0570   62.7950 C   0  0  0  0  0  0  0  0  0  0  0  0
  114.9250  203.6360   63.9200 O   0  0  0  0  0  0  0  0  0  0  0  0
  116.1860  206.2710   62.9330 C   0  0  0  0  0  0  0  0  0  0  0  0
  115.9520  206.7130   64.3660 C   0  0  0  0  0  0  0  0  0  0  0  0
  114.4730  206.9420   64.4610 C   0  0  0  0  0  0  0  0  0  0  0  0
  115.4000  203.2860   61.7690 N   0  0  0  0  0  0  0  0  0  0  0  0
  115.6910  201.8860   61.9360 C   0  0  0  0  0  0  0  0  0  0  0  0
  117.0640  201.6980   62.5610 C   0  0  0  0  0  0  0  0  0  0  0  0
  117.8980  202.6080   62.4760 O   0  0  0  0  0  0  0  0  0  0  0  0
  117.2860  200.5070   63.1550 N   0  0  0  0  0  0  0  0  0  0  0  0
  118.5020  200.1750   63.8950 C   0  0  2  0  0  0  0  0  0  0  0  0
  119.2960  199.0900   63.1770 C   0  0  0  0  0  0  0  0  0  0  0  0
  118.7330  198.1440   62.6880 O   0  0  0  0  0  0  0  0  0  0  0  0
  118.1930  199.6540   65.3130 C   0  0  0  0  0  0  0  0  0  0  0  0
  119.5030  199.5040   66.0790 C   0  0  0  0  0  0  0  0  0  0  0  0
  117.2460  200.5870   66.0580 C   0  0  0  0  0  0  0  0  0  0  0  0
  120.6110  199.2300   63.1350 N   0  0  0  0  0  0  0  0  0  0  0  0
  121.4750  198.3310   62.3760 C   0  0  2  0  0  0  0  0  0  0  0  0
  122.6370  197.9400   63.2390 C   0  0  0  0  0  0  0  0  0  0  0  0
  123.0850  198.7210   64.0930 O   0  0  0  0  0  0  0  0  0  0  0  0
  122.0030  199.0400   61.0960 C   0  0  0  0  0  0  0  0  0  0  0  0
  120.8990  199.5140   60.1730 C   0  0  0  0  0  0  0  0  0  0  0  0
  120.1770  200.6730   60.4560 C   0  0  0  0  0  0  0  0  0  0  0  0
  120.5810  198.8040   59.0080 C   0  0  0  0  0  0  0  0  0  0  0  0
  119.1660  201.1070   59.6120 C   0  0  0  0  0  0  0  0  0  0  0  0
  119.5570  199.2320   58.1420 C   0  0  0  0  0  0  0  0  0  0  0  0
  118.8370  200.3670   58.4540 C   0  0  0  0  0  0  0  0  0  0  0  0
  117.8070  200.7790   57.6250 O   0  0  0  0  0  0  0  0  0  0  0  0
  2  1  1  6
  3  2  1  0
  4  3  2  0
  5  2  1  0
  6  5  1  0
  7  6  1  0
  8  6  2  0
  9  7  2  0
 10  9  1  0
 10  8  1  0
 12 11  1  6
 13 12  1  0
 14 13  2  0
 15 12  1  0
 16 15  1  0
 17 16  2  0
 18 16  1  0
 20 19  1  1
 21 20  1  0
 22 21  2  0
 23 20  1  0
 24 23  1  0
 25 24  2  0
 26 24  1  0
 27 25  1  0
 28 26  2  0
 29 28  1  0
 29 27  2  0
 30 29  1  0
 31 21  1  0
 32 31  1  0
 33 32  1  0
 34 33  2  0
 32 35  1  1
 36 35  1  0
 37 36  1  0
 38 37  1  0
 39 38  1  0
 40 33  1  0
 41 40  1  1
 42 41  1  0
 43 42  2  0
 44 41  1  0
 45 44  1  0
 46 44  1  0
 47 42  1  0
 48 47  1  0
 49 48  1  0
 50 49  2  0
 48 51  1  1
 52 51  1  0
 53 49  1  0
 54 53  1  0
 55 54  1  0
 56 55  2  0
 54 57  1  1
 58 57  1  0
 59 58  1  0
 60 59  2  0
 61 59  1  0
 62 55  1  0
 63 62  1  0
 64 63  1  0
 65 64  2  0
 67 66  1  1
 68 67  1  0
 69 68  2  0
 70 67  1  0
 71 70  1  0
 72 71  2  0
 73 71  1  0
 75 74  1  1
 76 75  1  0
 77 76  2  0
 78 75  1  0
 79 78  1  0
 80 79  2  0
 81 79  1  0
 82 80  1  0
 83 81  2  0
 84 82  2  0
 84 83  1  0
 86 85  1  6
 87 86  1  0
 88 87  2  0
 89 86  1  0
 90 89  1  0
 91 90  1  0
 92 91  2  0
 93 91  1  0
 94 87  1  0
 95 94  1  0
 96 95  1  0
 97 96  2  0
 95 98  1  1
 99 98  1  0
100 99  1  0
101100  1  0
102101  1  0
104103  1  6
105104  1  0
106105  2  0
107104  1  0
108107  1  0
109108  2  0
110108  1  0
111109  1  0
112110  2  0
113111  2  0
113112  1  0
114113  1  0
116115  1  6
117116  1  0
118117  2  0
119116  1  0
120119  1  0
121120  2  0
122120  1  0
123121  1  0
124122  2  0
125124  1  0
125123  2  0
126125  1  0
128127  1  0
129128  1  0
130129  2  0
128131  1  6
133132  1  6
134133  1  0
135134  2  0
136133  1  0
137136  1  0
138137  2  0
139137  1  0
140134  1  0
141140  1  0
142141  1  0
143142  2  0
141144  1  1
145142  1  0
146145  1  0
147146  1  0
148147  2  0
146149  1  6
150149  1  0
151147  1  0
152151  1  0
153152  1  0
154153  2  0
152155  1  6
156155  1  0
157156  1  0
158157  1  0
159158  1  0
161160  1  6
162161  1  0
163162  2  0
164161  1  0
165164  1  0
167166  1  6
168167  1  0
169168  2  0
170167  1  0
171170  1  0
170172  1  1
173168  1  0
174173  1  0
175174  1  0
176175  2  0
174177  1  1
178177  1  0
179175  1  0
180179  1  0
181180  1  0
182181  2  0
180183  1  1
184183  1  0
185184  2  0
186184  1  0
187185  1  0
188187  1  0
188186  2  0
189186  1  0
190188  1  0
191189  2  0
192191  1  0
192190  2  0
193181  1  0
194193  1  0
195194  1  0
196195  2  0
197195  1  0
198197  1  0
199198  1  0
200199  2  0
198201  1  1
202201  1  0
203202  1  0
204203  2  0
205203  1  0
206199  1  0
207206  1  0
208207  1  0
209208  2  0
210208  1  0
211210  1  0
212211  1  0
213212  2  0
211214  1  6
215214  1  0
215150  1  0
216212  1  0
217216  1  0
218217  1  0
219218  2  0
217220  1  6
222221  1  6
223222  1  0
224223  2  0
225222  1  0
226225  1  0
227226  1  0
228227  2  0
229227  1  0
230223  1  0
231230  1  0
231232  1  1
233232  2  0
234231  1  0
235234  1  0
236230  1  0
236235  1  0
237232  1  0
238237  1  0
239238  1  0
240239  2  0
241239  1  0
242241  1  6
243242  1  0
244243  2  0
245242  1  0
246245  1  0
247245  1  0
248243  1  0
249248  1  0
250249  1  0
251250  2  0
249252  1  6
253252  1  0
254253  2  0
255253  1  0
256254  1  0
257255  2  0
258257  1  0
258256  2  0
259258  1  0
M  END
$$$$
