
     RDKit          3D

154151  0  0  0  0  0  0  0  0999 V2000
  113.9990  179.8930   53.4810 N   0  0  0  0  0  0  0  0  0  0  0  0
  113.7330  178.6190   54.1140 C   0  0  2  0  0  0  0  0  0  0  0  0
  112.9140  177.7370   53.1780 C   0  0  0  0  0  0  0  0  0  0  0  0
  112.0450  178.2300   52.4670 O   0  0  0  0  0  0  0  0  0  0  0  0
  113.0230  178.8490   55.4630 C   0  0  0  0  0  0  0  0  0  0  0  0
  112.4260  177.5570   55.9770 C   0  0  0  0  0  0  0  0  0  0  0  0
  114.0300  179.3690   56.4450 C   0  0  0  0  0  0  0  0  0  0  0  0
  110.4980  174.6530   53.7850 N   0  0  0  0  0  0  0  0  0  0  0  0
  109.7540  173.6470   54.5510 C   0  0  2  0  0  0  0  0  0  0  0  0
  108.6730  173.0360   53.6600 C   0  0  0  0  0  0  0  0  0  0  0  0
  109.0000  172.4370   52.6410 O   0  0  0  0  0  0  0  0  0  0  0  0
  109.2090  174.2420   55.8320 C   0  0  0  0  0  0  0  0  0  0  0  0
  110.4030  174.5420   56.7510 C   0  0  0  0  0  0  0  0  0  0  0  0
  109.9720  175.4610   57.8730 C   0  0  0  0  0  0  0  0  0  0  0  0
  111.0550  173.2820   57.3180 C   0  0  0  0  0  0  0  0  0  0  0  0
  107.4050  173.1600   53.9900 N   0  0  0  0  0  0  0  0  0  0  0  0
  106.3830  172.6860   53.0550 C   0  0  2  0  0  0  0  0  0  0  0  0
  106.3140  173.6330   51.8560 C   0  0  0  0  0  0  0  0  0  0  0  0
  105.9830  173.2500   50.7310 O   0  0  0  0  0  0  0  0  0  0  0  0
  105.0400  172.5950   53.7710 C   0  0  2  0  0  0  0  0  0  0  0  0
  105.2380  171.8160   54.9580 O   0  0  0  0  0  0  0  0  0  0  0  0
  103.9580  171.9370   52.8820 C   0  0  0  0  0  0  0  0  0  0  0  0
  106.6540  174.8820   52.1430 N   0  0  0  0  0  0  0  0  0  0  0  0
  106.7230  175.9480   51.1930 C   0  0  2  0  0  0  0  0  0  0  0  0
  108.1220  176.5320   51.2850 C   0  0  0  0  0  0  0  0  0  0  0  0
  108.7900  176.3830   52.2920 O   0  0  0  0  0  0  0  0  0  0  0  0
  105.6900  177.0090   51.5580 C   0  0  0  0  0  0  0  0  0  0  0  0
  108.5560  177.1960   50.2240 N   0  0  0  0  0  0  0  0  0  0  0  0
  109.8120  177.9330   50.2480 C   0  0  2  0  0  0  0  0  0  0  0  0
  109.4920  179.4340   50.2930 C   0  0  0  0  0  0  0  0  0  0  0  0
  108.6620  179.8930   49.5310 O   0  0  0  0  0  0  0  0  0  0  0  0
  110.6540  177.5740   49.0250 C   0  0  0  0  0  0  0  0  0  0  0  0
  111.9290  178.3870   48.9310 C   0  0  0  0  0  0  0  0  0  0  0  0
  112.9210  177.7960   47.9660 C   0  0  0  0  0  0  0  0  0  0  0  0
  113.1200  176.5990   47.9460 O   0  0  0  0  0  0  0  0  0  0  0  0
  113.5740  178.6380   47.1850 N   0  0  0  0  0  0  0  0  0  0  0  0
  110.1150  180.1710   51.2160 N   0  0  0  0  0  0  0  0  0  0  0  0
  109.9130  181.6330   51.3740 C   0  0  2  0  0  0  0  0  0  0  0  0
  111.2310  182.3740   51.6360 C   0  0  0  0  0  0  0  0  0  0  0  0
  112.1040  181.8840   52.3260 O   0  0  0  0  0  0  0  0  0  0  0  0
  109.0190  181.9540   52.5720 C   0  0  0  0  0  0  0  0  0  0  0  0
  107.5820  181.4900   52.4750 C   0  0  0  0  0  0  0  0  0  0  0  0
  106.7880  182.2270   51.3960 C   0  0  0  0  0  0  0  0  0  0  0  0
  105.4210  181.7170   51.3700 N   0  0  0  0  0  0  0  0  0  0  0  0
  104.9960  180.6890   50.6320 C   0  0  0  0  0  0  0  0  0  0  0  0
  105.8210  180.0470   49.8020 N   0  0  0  0  0  0  0  0  0  0  0  0
  103.7240  180.3180   50.7200 N   0  0  0  0  0  0  0  0  0  0  0  0
  113.0670  184.9250   53.7960 N   0  0  0  0  0  0  0  0  0  0  0  0
  112.9580  185.4680   55.1720 C   0  0  2  0  0  0  0  0  0  0  0  0
  113.8290  186.6750   55.4260 C   0  0  0  0  0  0  0  0  0  0  0  0
  113.3710  187.6280   56.0610 O   0  0  0  0  0  0  0  0  0  0  0  0
  113.3010  184.4010   56.2170 C   0  0  0  0  0  0  0  0  0  0  0  0
  112.2380  183.2860   56.3330 C   0  0  0  0  0  0  0  0  0  0  0  0
  112.4700  182.3060   57.4810 C   0  0  0  0  0  0  0  0  0  0  0  0
  110.8660  183.9310   56.4750 C   0  0  0  0  0  0  0  0  0  0  0  0
  115.0750  186.6470   54.9220 N   0  0  0  0  0  0  0  0  0  0  0  0
  116.0920  187.6470   55.2540 C   0  0  2  0  0  0  0  0  0  0  0  0
  117.0150  187.9430   54.0910 C   0  0  0  0  0  0  0  0  0  0  0  0
  117.1820  187.1410   53.1610 O   0  0  0  0  0  0  0  0  0  0  0  0
  116.9760  187.1490   56.4070 C   0  0  0  0  0  0  0  0  0  0  0  0
  116.3320  187.3440   58.0960 S   0  0  0  0  0  0  0  0  0  0  0  0
  119.2620  187.2040   64.3310 N   0  0  0  0  0  0  0  0  0  0  0  0
  117.7970  186.9830   64.5990 C   0  0  2  0  0  0  0  0  0  0  0  0
  117.0780  186.2320   63.5020 C   0  0  0  0  0  0  0  0  0  0  0  0
  115.9760  185.7240   63.7230 O   0  0  0  0  0  0  0  0  0  0  0  0
  117.0490  188.2940   64.8920 C   0  0  0  0  0  0  0  0  0  0  0  0
  116.8000  189.1350   63.6770 C   0  0  0  0  0  0  0  0  0  0  0  0
  117.6600  190.1360   63.2710 N   0  0  0  0  0  0  0  0  0  0  0  0
  115.7920  189.1150   62.7720 C   0  0  0  0  0  0  0  0  0  0  0  0
  117.1870  190.6970   62.1720 C   0  0  0  0  0  0  0  0  0  0  0  0
  116.0460  190.1090   61.8610 N   0  0  0  0  0  0  0  0  0  0  0  0
  117.6720  186.2090   62.3010 N   0  0  0  0  0  0  0  0  0  0  0  0
  117.0810  185.4870   61.1780 C   0  0  2  0  0  0  0  0  0  0  0  0
  116.8950  184.0020   61.5410 C   0  0  0  0  0  0  0  0  0  0  0  0
  116.0340  183.3370   60.9940 O   0  0  0  0  0  0  0  0  0  0  0  0
  117.9660  185.6100   59.9350 C   0  0  0  0  0  0  0  0  0  0  0  0
  118.0360  187.2790   59.2280 S   0  0  0  0  0  0  0  0  0  0  0  0
  117.7210  183.4810   62.4480 N   0  0  0  0  0  0  0  0  0  0  0  0
  117.6520  182.0660   62.8310 C   0  0  2  0  0  0  0  0  0  0  0  0
  116.9280  181.8200   64.1600 C   0  0  0  0  0  0  0  0  0  0  0  0
  116.9860  180.7060   64.6550 O   0  0  0  0  0  0  0  0  0  0  0  0
  119.0690  181.4720   62.8800 C   0  0  0  0  0  0  0  0  0  0  0  0
  119.8170  181.6580   61.6190 C   0  0  0  0  0  0  0  0  0  0  0  0
  119.5690  180.8290   60.5300 C   0  0  0  0  0  0  0  0  0  0  0  0
  120.7150  182.7210   61.4730 C   0  0  0  0  0  0  0  0  0  0  0  0
  120.2280  181.0290   59.3260 C   0  0  0  0  0  0  0  0  0  0  0  0
  121.3680  182.9240   60.2630 C   0  0  0  0  0  0  0  0  0  0  0  0
  121.1210  182.0780   59.1970 C   0  0  0  0  0  0  0  0  0  0  0  0
  116.2650  182.8450   64.7120 N   0  0  0  0  0  0  0  0  0  0  0  0
  115.5720  182.7260   65.9930 C   0  0  2  0  0  0  0  0  0  0  0  0
  114.4250  181.7260   65.9770 C   0  0  0  0  0  0  0  0  0  0  0  0
  114.1650  181.0940   66.9910 O   0  0  0  0  0  0  0  0  0  0  0  0
  114.9990  184.0780   66.4830 C   0  0  0  0  0  0  0  0  0  0  0  0
  116.0160  184.9480   67.1950 C   0  0  0  0  0  0  0  0  0  0  0  0
  117.1630  184.5280   67.4220 O   0  0  0  0  0  0  0  0  0  0  0  0
  115.6840  186.0870   67.5250 O   0  0  0  0  0  0  0  0  0  0  0  0
  113.7100  181.6290   64.8600 N   0  0  0  0  0  0  0  0  0  0  0  0
  112.5460  180.7260   64.7370 C   0  0  0  0  0  0  0  0  0  0  0  0
  112.8790  179.4360   64.0230 C   0  0  0  0  0  0  0  0  0  0  0  0
  112.2570  178.4150   64.2920 O   0  0  0  0  0  0  0  0  0  0  0  0
  113.8640  179.4900   63.1200 N   0  0  0  0  0  0  0  0  0  0  0  0
  114.2900  178.3630   62.2840 C   0  0  2  0  0  0  0  0  0  0  0  0
  115.7980  178.1860   62.3390 C   0  0  0  0  0  0  0  0  0  0  0  0
  116.5010  178.5080   61.3520 O   0  0  0  0  0  0  0  0  0  0  0  0
  113.8910  178.6040   60.8420 C   0  0  0  0  0  0  0  0  0  0  0  0
  112.3870  178.4280   60.6460 C   0  0  0  0  0  0  0  0  0  0  0  0
  111.8880  179.1360   59.3960 C   0  0  0  0  0  0  0  0  0  0  0  0
  112.0570  176.9420   60.6170 C   0  0  0  0  0  0  0  0  0  0  0  0
  117.7650  175.9360   55.1690 N   0  0  0  0  0  0  0  0  0  0  0  0
  118.0270  177.2120   54.4610 C   0  0  2  0  0  0  0  0  0  0  0  0
  118.6690  177.0900   53.0760 C   0  0  0  0  0  0  0  0  0  0  0  0
  119.4290  176.1750   52.7930 O   0  0  0  0  0  0  0  0  0  0  0  0
  118.9100  178.1050   55.2790 C   0  0  0  0  0  0  0  0  0  0  0  0
  118.2650  178.5750   56.4780 C   0  0  0  0  0  0  0  0  0  0  0  0
  118.1640  177.9170   57.6460 C   0  0  0  0  0  0  0  0  0  0  0  0
  117.6350  179.8380   56.6700 C   0  0  0  0  0  0  0  0  0  0  0  0
  117.4980  178.6830   58.5590 N   0  0  0  0  0  0  0  0  0  0  0  0
  117.1570  179.8670   57.9780 C   0  0  0  0  0  0  0  0  0  0  0  0
  117.4040  180.9380   55.8500 C   0  0  0  0  0  0  0  0  0  0  0  0
  116.4800  180.9460   58.4930 C   0  0  0  0  0  0  0  0  0  0  0  0
  116.7340  182.0140   56.3780 C   0  0  0  0  0  0  0  0  0  0  0  0
  116.2770  182.0120   57.6740 C   0  0  0  0  0  0  0  0  0  0  0  0
  118.6570  185.5250   71.9320 N   0  0  0  0  0  0  0  0  0  0  0  0
  117.4530  185.3350   71.1720 C   0  0  2  0  0  0  0  0  0  0  0  0
  116.4400  186.4080   71.5580 C   0  0  0  0  0  0  0  0  0  0  0  0
  116.2780  186.7520   72.7270 O   0  0  0  0  0  0  0  0  0  0  0  0
  116.9050  183.8810   71.3280 C   0  0  0  0  0  0  0  0  0  0  0  0
  115.4670  183.7910   70.8540 C   0  0  0  0  0  0  0  0  0  0  0  0
  117.7400  182.8780   70.5300 C   0  0  0  0  0  0  0  0  0  0  0  0
  115.8310  187.0000   70.5340 N   0  0  0  0  0  0  0  0  0  0  0  0
  114.8290  188.0590   70.6780 C   0  0  2  0  0  0  0  0  0  0  0  0
  115.3140  189.4580   70.9890 C   0  0  0  0  0  0  0  0  0  0  0  0
  114.4870  190.3560   71.1110 O   0  0  0  0  0  0  0  0  0  0  0  0
  113.7430  187.6490   71.6900 C   0  0  0  0  0  0  0  0  0  0  0  0
  113.0730  186.4930   71.1890 O   0  0  0  0  0  0  0  0  0  0  0  0
  110.0540  194.6870   57.1960 N   0  0  0  0  0  0  0  0  0  0  0  0
  110.1600  193.2740   57.4030 C   0  0  2  0  0  0  0  0  0  0  0  0
  110.5530  192.5310   56.1330 C   0  0  0  0  0  0  0  0  0  0  0  0
  110.0580  192.8540   55.0680 O   0  0  0  0  0  0  0  0  0  0  0  0
  108.8310  192.7250   57.9060 C   0  0  0  0  0  0  0  0  0  0  0  0
  108.9360  191.3280   58.5050 C   0  0  0  0  0  0  0  0  0  0  0  0
  107.7640  191.1490   59.4330 C   0  0  0  0  0  0  0  0  0  0  0  0
  107.2160  189.7330   59.5180 C   0  0  0  0  0  0  0  0  0  0  0  0
  105.8410  189.8830   60.1550 N   0  0  0  0  0  0  0  0  0  0  0  0
  111.4610  191.5620   56.2540 N   0  0  0  0  0  0  0  0  0  0  0  0
  112.0440  190.8700   55.0790 C   0  0  0  0  0  0  0  0  0  0  0  0
  113.3480  191.4510   54.5520 C   0  0  0  0  0  0  0  0  0  0  0  0
  114.0670  190.8060   53.8100 O   0  0  0  0  0  0  0  0  0  0  0  0
  115.5290  192.4370   56.8030 N   0  0  0  0  0  0  0  0  0  0  0  0
  116.4190  192.2960   57.9230 C   0  0  2  0  0  0  0  0  0  0  0  0
  117.4870  191.2630   57.5980 C   0  0  0  0  0  0  0  0  0  0  0  0
  117.2130  190.3020   56.8820 O   0  0  0  0  0  0  0  0  0  0  0  0
  115.6020  192.0220   59.2060 C   0  0  0  0  0  0  0  0  0  0  0  0
  115.1360  190.7090   59.3120 O   0  0  0  0  0  0  0  0  0  0  0  0
  2  1  1  6
  3  2  1  0
  4  3  2  0
  5  2  1  0
  6  5  1  0
  7  5  1  0
  9  8  1  6
 10  9  1  0
 11 10  2  0
 12  9  1  0
 13 12  1  0
 14 13  1  0
 15 13  1  0
 16 10  1  0
 17 16  1  1
 18 17  1  0
 19 18  2  0
 20 17  1  0
 21 20  1  0
 20 22  1  6
 23 18  1  0
 24 23  1  0
 25 24  1  0
 26 25  2  0
 24 27  1  1
 28 25  1  0
 29 28  1  0
 30 29  1  0
 31 30  2  0
 29 32  1  6
 33 32  1  0
 34 33  1  0
 35 34  2  0
 36 34  1  0
 37 30  1  0
 38 37  1  0
 39 38  1  0
 40 39  2  0
 38 41  1  1
 42 41  1  0
 43 42  1  0
 44 43  1  0
 45 44  1  0
 46 45  1  0
 47 45  2  0
 49 48  1  6
 50 49  1  0
 51 50  2  0
 52 49  1  0
 53 52  1  0
 54 53  1  0
 55 53  1  0
 56 50  1  0
 57 56  1  0
 58 57  1  0
 59 58  2  0
 57 60  1  1
 61 60  1  0
 63 62  1  6
 64 63  1  0
 65 64  2  0
 66 63  1  0
 67 66  1  0
 68 67  1  0
 69 67  2  0
 70 68  2  0
 71 70  1  0
 71 69  1  0
 72 64  1  0
 73 72  1  0
 74 73  1  0
 75 74  2  0
 73 76  1  6
 77 76  1  0
 77 61  1  0
 78 74  1  0
 79 78  1  0
 80 79  1  0
 81 80  2  0
 79 82  1  1
 83 82  1  0
 84 83  2  0
 85 83  1  0
 86 84  1  0
 87 85  2  0
 88 86  2  0
 88 87  1  0
 89 80  1  0
 90 89  1  0
 91 90  1  0
 92 91  2  0
 90 93  1  6
 94 93  1  0
 95 94  2  0
 96 94  1  0
 97 91  1  0
 98 97  1  0
 99 98  1  0
100 99  2  0
101 99  1  0
102101  1  0
103102  1  0
104103  2  0
102105  1  6
106105  1  0
107106  1  0
108106  1  0
110109  1  1
111110  1  0
112111  2  0
113110  1  0
114113  1  0
115114  2  0
116114  1  0
117115  1  0
118117  1  0
118116  2  0
119116  1  0
120118  1  0
121119  2  0
122121  1  0
122120  2  0
124123  1  1
125124  1  0
126125  2  0
127124  1  0
128127  1  0
129127  1  0
130125  1  0
131130  1  0
132131  1  0
133132  2  0
131134  1  1
135134  1  0
137136  1  6
138137  1  0
139138  2  0
140137  1  0
141140  1  0
142141  1  0
143142  1  0
144143  1  0
145138  1  0
146145  1  0
147146  1  0
148147  2  0
150149  1  6
151150  1  0
152151  2  0
153150  1  0
154153  1  0
M  END
$$$$
