
     RDKit          3D

263260  0  0  0  0  0  0  0  0999 V2000
    2.6630   -8.9970   18.1670 N   0  0  0  0  0  0  0  0  0  0  0  0
    2.9240  -10.4400   17.9930 C   0  0  2  0  0  0  0  0  0  0  0  0
    1.9200  -11.0790   17.0230 C   0  0  0  0  0  0  0  0  0  0  0  0
    2.2090  -12.1160   16.4330 O   0  0  0  0  0  0  0  0  0  0  0  0
    2.9900  -11.2100   19.3240 C   0  0  0  0  0  0  0  0  0  0  0  0
    1.6610  -11.4120   19.9660 C   0  0  0  0  0  0  0  0  0  0  0  0
    1.1890  -10.5890   20.9630 N   0  0  0  0  0  0  0  0  0  0  0  0
    0.6770  -12.3210   19.7260 C   0  0  0  0  0  0  0  0  0  0  0  0
   -0.0060  -11.0020   21.3430 C   0  0  0  0  0  0  0  0  0  0  0  0
   -0.3510  -12.0410   20.5990 N   0  0  0  0  0  0  0  0  0  0  0  0
    3.7290  -11.8510   13.8170 N   0  0  0  0  0  0  0  0  0  0  0  0
    4.9840  -12.6650   13.8290 C   0  0  2  0  0  0  0  0  0  0  0  0
    4.9870  -13.7110   12.7070 C   0  0  0  0  0  0  0  0  0  0  0  0
    6.0090  -13.9750   12.1100 O   0  0  0  0  0  0  0  0  0  0  0  0
    5.1580  -13.4040   15.1690 C   0  0  0  0  0  0  0  0  0  0  0  0
    5.6340  -12.5190   16.3070 C   0  0  0  0  0  0  0  0  0  0  0  0
    5.8400  -11.3210   16.1370 O   0  0  0  0  0  0  0  0  0  0  0  0
    5.8010  -13.0480   17.4380 O   0  0  0  0  0  0  0  0  0  0  0  0
   10.2620   -3.7080   19.3380 N   0  0  0  0  0  0  0  0  0  0  0  0
    9.6260   -5.0230   19.5090 C   0  0  2  0  0  0  0  0  0  0  0  0
   10.5170   -6.1180   18.9000 C   0  0  0  0  0  0  0  0  0  0  0  0
   10.9850   -5.9860   17.7730 O   0  0  0  0  0  0  0  0  0  0  0  0
    8.2380   -5.0810   18.8500 C   0  0  0  0  0  0  0  0  0  0  0  0
    7.6620   -6.4760   18.7880 C   0  0  0  0  0  0  0  0  0  0  0  0
    7.1000   -7.0710   19.9200 C   0  0  0  0  0  0  0  0  0  0  0  0
    7.7170   -7.2280   17.6030 C   0  0  0  0  0  0  0  0  0  0  0  0
    6.5840   -8.3670   19.8720 C   0  0  0  0  0  0  0  0  0  0  0  0
    7.2180   -8.5230   17.5570 C   0  0  0  0  0  0  0  0  0  0  0  0
    6.6290   -9.0780   18.6980 C   0  0  0  0  0  0  0  0  0  0  0  0
    6.1610  -10.3660   18.6800 O   0  0  0  0  0  0  0  0  0  0  0  0
   10.7380   -7.1760   19.6810 N   0  0  0  0  0  0  0  0  0  0  0  0
   11.4100   -8.3510   19.2200 C   0  0  2  0  0  0  0  0  0  0  0  0
   10.3970   -9.4670   19.0220 C   0  0  0  0  0  0  0  0  0  0  0  0
    9.6790   -9.8710   19.9800 O   0  0  0  0  0  0  0  0  0  0  0  0
   12.4790   -8.7960   20.1850 C   0  0  0  0  0  0  0  0  0  0  0  0
   13.7340   -7.9550   20.0680 C   0  0  0  0  0  0  0  0  0  0  0  0
   14.7250   -8.3430   21.1400 C   0  0  0  0  0  0  0  0  0  0  0  0
   14.4830   -7.4090   22.2630 C   0  0  0  0  0  0  0  0  0  0  0  0
   14.2950   -8.1150   23.5450 N   0  0  0  0  0  0  0  0  0  0  0  0
   10.4220  -10.0150   17.8190 N   0  0  0  0  0  0  0  0  0  0  0  0
    9.6050  -11.1670   17.4770 C   0  0  2  0  0  0  0  0  0  0  0  0
    9.7030  -12.2600   18.5500 C   0  0  0  0  0  0  0  0  0  0  0  0
   10.8130  -12.6080   19.0360 O   0  0  0  0  0  0  0  0  0  0  0  0
    9.9630  -11.7490   16.0860 C   0  0  0  0  0  0  0  0  0  0  0  0
    9.2480  -13.0890   15.8080 C   0  0  0  0  0  0  0  0  0  0  0  0
    9.6450  -10.7360   14.9820 C   0  0  0  0  0  0  0  0  0  0  0  0
    8.5160  -12.7260   18.9470 N   0  0  0  0  0  0  0  0  0  0  0  0
    8.3110  -13.8010   19.9250 C   0  0  2  0  0  0  0  0  0  0  0  0
    8.5110  -13.4150   21.3930 C   0  0  0  0  0  0  0  0  0  0  0  0
    8.3670  -14.2550   22.2640 O   0  0  0  0  0  0  0  0  0  0  0  0
    9.1320  -15.0720   19.5690 C   0  0  0  0  0  0  0  0  0  0  0  0
   10.4140  -15.0290   20.1910 O   0  0  0  0  0  0  0  0  0  0  0  0
    8.7950  -12.1520   21.6910 N   0  0  0  0  0  0  0  0  0  0  0  0
    9.0490  -11.7170   23.0800 C   0  0  2  0  0  0  0  0  0  0  0  0
    8.0070  -10.6870   23.5140 C   0  0  0  0  0  0  0  0  0  0  0  0
    7.1770  -10.2940   22.7230 O   0  0  0  0  0  0  0  0  0  0  0  0
   10.4630  -11.1770   23.2250 C   0  0  0  0  0  0  0  0  0  0  0  0
   11.4960  -12.2370   22.8570 C   0  0  0  0  0  0  0  0  0  0  0  0
   12.9400  -11.8010   23.0260 C   0  0  0  0  0  0  0  0  0  0  0  0
   13.1910  -10.7760   23.6750 O   0  0  0  0  0  0  0  0  0  0  0  0
   13.8470  -12.5110   22.5460 O   0  0  0  0  0  0  0  0  0  0  0  0
    8.0610  -10.2840   24.7770 N   0  0  0  0  0  0  0  0  0  0  0  0
    6.9910   -9.5070   25.3940 C   0  0  0  0  0  0  0  0  0  0  0  0
    7.1710   -8.0140   25.4600 C   0  0  0  0  0  0  0  0  0  0  0  0
    6.2450   -7.3240   25.8730 O   0  0  0  0  0  0  0  0  0  0  0  0
    5.1380   -4.8040   22.8510 N   0  0  0  0  0  0  0  0  0  0  0  0
    4.2140   -5.6040   22.0590 C   0  0  2  0  0  0  0  0  0  0  0  0
    3.0060   -4.7490   21.6630 C   0  0  0  0  0  0  0  0  0  0  0  0
    1.9520   -4.7800   22.3060 O   0  0  0  0  0  0  0  0  0  0  0  0
    3.8210   -6.8570   22.8270 C   0  0  0  0  0  0  0  0  0  0  0  0
    3.0380   -7.8520   21.9880 C   0  0  0  0  0  0  0  0  0  0  0  0
    2.9340   -7.6470   20.7490 O   0  0  0  0  0  0  0  0  0  0  0  0
    2.5220   -8.7990   22.6130 O   0  0  0  0  0  0  0  0  0  0  0  0
  -10.5290  -18.3980   23.3960 N   0  0  0  0  0  0  0  0  0  0  0  0
  -10.9540  -19.6440   24.0310 C   0  0  2  0  0  0  0  0  0  0  0  0
  -11.5680  -19.3610   25.4040 C   0  0  0  0  0  0  0  0  0  0  0  0
  -11.1700  -18.4180   26.1010 O   0  0  0  0  0  0  0  0  0  0  0  0
   -9.7750  -20.5980   24.2730 C   0  0  0  0  0  0  0  0  0  0  0  0
   -9.0530  -21.0800   23.0460 C   0  0  0  0  0  0  0  0  0  0  0  0
   -9.5300  -20.8720   21.7690 C   0  0  0  0  0  0  0  0  0  0  0  0
   -7.8740  -21.8010   23.1970 C   0  0  0  0  0  0  0  0  0  0  0  0
   -8.8200  -21.3480   20.6630 C   0  0  0  0  0  0  0  0  0  0  0  0
   -7.1670  -22.3040   22.0920 C   0  0  0  0  0  0  0  0  0  0  0  0
   -7.6320  -22.0490   20.8200 C   0  0  0  0  0  0  0  0  0  0  0  0
   -8.1860  -23.3580   28.4790 N   0  0  0  0  0  0  0  0  0  0  0  0
   -6.9240  -23.7410   27.8360 C   0  0  2  0  0  0  0  0  0  0  0  0
   -7.2140  -24.8200   26.8160 C   0  0  0  0  0  0  0  0  0  0  0  0
   -8.0200  -25.7110   27.0630 O   0  0  0  0  0  0  0  0  0  0  0  0
   -5.8860  -24.2310   28.8670 C   0  0  0  0  0  0  0  0  0  0  0  0
   -5.5100  -23.1690   29.8960 C   0  0  0  0  0  0  0  0  0  0  0  0
   -4.4930  -23.6550   30.9110 C   0  0  0  0  0  0  0  0  0  0  0  0
   -3.9330  -24.7420   30.7370 O   0  0  0  0  0  0  0  0  0  0  0  0
   -4.2400  -22.8970   31.8640 O   0  0  0  0  0  0  0  0  0  0  0  0
   -6.6250  -24.7150   25.6280 N   0  0  0  0  0  0  0  0  0  0  0  0
   -6.9370  -25.6690   24.5360 C   0  0  2  0  0  0  0  0  0  0  0  0
   -8.4480  -25.7970   24.2380 C   0  0  0  0  0  0  0  0  0  0  0  0
   -8.9410  -26.8740   23.9960 O   0  0  0  0  0  0  0  0  0  0  0  0
   -6.2610  -27.0620   24.7500 C   0  0  0  0  0  0  0  0  0  0  0  0
   -4.7450  -27.0380   24.4440 C   0  0  0  0  0  0  0  0  0  0  0  0
   -4.1330  -28.4380   24.4930 C   0  0  0  0  0  0  0  0  0  0  0  0
   -2.8080  -28.4690   23.7350 C   0  0  0  0  0  0  0  0  0  0  0  0
   -1.8780  -29.5430   24.2310 N   0  0  0  0  0  0  0  0  0  0  0  0
    6.1780  -14.4850   37.4120 N   0  0  0  0  0  0  0  0  0  0  0  0
    6.9050  -14.6500   36.1750 C   0  0  2  0  0  0  0  0  0  0  0  0
    8.3940  -14.4890   36.4700 C   0  0  0  0  0  0  0  0  0  0  0  0
    9.0550  -13.6170   35.9180 O   0  0  0  0  0  0  0  0  0  0  0  0
    6.4150  -13.6550   35.1040 C   0  0  0  0  0  0  0  0  0  0  0  0
    5.0210  -13.9800   34.5950 C   0  0  0  0  0  0  0  0  0  0  0  0
    4.8170  -15.0430   33.7380 C   0  0  0  0  0  0  0  0  0  0  0  0
    3.9170  -13.2290   34.9730 C   0  0  0  0  0  0  0  0  0  0  0  0
    3.5520  -15.3480   33.2680 C   0  0  0  0  0  0  0  0  0  0  0  0
    2.6430  -13.5220   34.5060 C   0  0  0  0  0  0  0  0  0  0  0  0
    2.4600  -14.5770   33.6500 C   0  0  0  0  0  0  0  0  0  0  0  0
    1.2090  -14.9330   33.1960 O   0  0  0  0  0  0  0  0  0  0  0  0
   10.9020  -14.1440   33.4380 N   0  0  0  0  0  0  0  0  0  0  0  0
   10.7800  -13.0380   32.4790 C   0  0  2  0  0  0  0  0  0  0  0  0
   10.9120  -11.7390   33.2610 C   0  0  0  0  0  0  0  0  0  0  0  0
   10.7770  -11.7470   34.4850 O   0  0  0  0  0  0  0  0  0  0  0  0
    9.4200  -13.1250   31.7370 C   0  0  0  0  0  0  0  0  0  0  0  0
    9.1640  -14.4660   31.0740 C   0  0  0  0  0  0  0  0  0  0  0  0
    9.7190  -14.7950   29.8220 C   0  0  0  0  0  0  0  0  0  0  0  0
    8.3830  -15.4110   31.7010 C   0  0  0  0  0  0  0  0  0  0  0  0
    9.4970  -16.0420   29.2370 C   0  0  0  0  0  0  0  0  0  0  0  0
    8.1560  -16.6570   31.1330 C   0  0  0  0  0  0  0  0  0  0  0  0
    8.6870  -16.9660   29.8970 C   0  0  0  0  0  0  0  0  0  0  0  0
    8.4360  -18.2480   29.4070 O   0  0  0  0  0  0  0  0  0  0  0  0
   -3.0490   -8.0970   35.0920 N   0  0  0  0  0  0  0  0  0  0  0  0
   -4.3640   -8.2080   35.7000 C   0  0  2  0  0  0  0  0  0  0  0  0
   -4.7480   -9.6490   35.9200 C   0  0  0  0  0  0  0  0  0  0  0  0
   -4.4850  -10.5090   35.0810 O   0  0  0  0  0  0  0  0  0  0  0  0
   -5.4150   -7.5430   34.8480 C   0  0  0  0  0  0  0  0  0  0  0  0
  -10.0850  -14.5200   33.0180 N   0  0  0  0  0  0  0  0  0  0  0  0
   -8.8660  -14.1590   32.2940 C   0  0  2  0  0  0  0  0  0  0  0  0
   -9.0970  -14.1240   30.7770 C   0  0  0  0  0  0  0  0  0  0  0  0
  -10.1420  -14.5720   30.2530 O   0  0  0  0  0  0  0  0  0  0  0  0
   -7.8060  -15.2170   32.6140 C   0  0  0  0  0  0  0  0  0  0  0  0
   -6.3770  -14.7420   32.4170 C   0  0  0  0  0  0  0  0  0  0  0  0
   -6.1030  -13.5920   31.9710 O   0  0  0  0  0  0  0  0  0  0  0  0
   -5.5170  -15.5790   32.7360 O   0  0  0  0  0  0  0  0  0  0  0  0
   -8.1210  -13.5430   30.0870 N   0  0  0  0  0  0  0  0  0  0  0  0
   -8.0140  -13.6780   28.6460 C   0  0  2  0  0  0  0  0  0  0  0  0
   -7.4430  -15.0730   28.3570 C   0  0  0  0  0  0  0  0  0  0  0  0
   -6.8730  -15.7020   29.2480 O   0  0  0  0  0  0  0  0  0  0  0  0
   -7.0750  -12.6120   28.1130 C   0  0  0  0  0  0  0  0  0  0  0  0
   -7.5580  -15.4960   27.1140 N   0  0  0  0  0  0  0  0  0  0  0  0
   -6.9950  -16.7530   26.6610 C   0  0  2  0  0  0  0  0  0  0  0  0
   -6.6450  -16.6230   25.1830 C   0  0  0  0  0  0  0  0  0  0  0  0
   -6.7120  -15.5230   24.6180 O   0  0  0  0  0  0  0  0  0  0  0  0
   -7.9910  -17.8880   26.9600 C   0  0  0  0  0  0  0  0  0  0  0  0
   -7.3060  -19.5740   27.0300 S   0  0  0  0  0  0  0  0  0  0  0  0
   -6.2260  -17.7260   24.5650 N   0  0  0  0  0  0  0  0  0  0  0  0
   -5.7600  -17.7160   23.1820 C   0  0  2  0  0  0  0  0  0  0  0  0
   -6.8340  -17.2150   22.2420 C   0  0  0  0  0  0  0  0  0  0  0  0
   -7.9920  -17.6290   22.3360 O   0  0  0  0  0  0  0  0  0  0  0  0
   -5.3250  -19.1140   22.7410 C   0  0  0  0  0  0  0  0  0  0  0  0
   -4.5920  -19.1340   21.3740 C   0  0  0  0  0  0  0  0  0  0  0  0
   -3.9430  -20.4970   21.1330 C   0  0  0  0  0  0  0  0  0  0  0  0
   -3.2350  -20.5010   19.7630 C   0  0  0  0  0  0  0  0  0  0  0  0
   -2.6040  -21.8380   19.5300 N   0  0  0  0  0  0  0  0  0  0  0  0
   -6.4510  -16.3060   21.3450 N   0  0  0  0  0  0  0  0  0  0  0  0
   -7.4170  -15.6340   20.4620 C   0  0  0  0  0  0  0  0  0  0  0  0
   -7.9390  -14.2890   20.9610 C   0  0  0  0  0  0  0  0  0  0  0  0
   -8.5200  -13.5340   20.1860 O   0  0  0  0  0  0  0  0  0  0  0  0
   -5.7080  -12.1600   22.2390 N   0  0  0  0  0  0  0  0  0  0  0  0
   -4.5520  -11.2730   22.1480 C   0  0  2  0  0  0  0  0  0  0  0  0
   -4.6590  -10.1820   21.0800 C   0  0  0  0  0  0  0  0  0  0  0  0
   -5.3550  -10.3250   20.0620 O   0  0  0  0  0  0  0  0  0  0  0  0
   -3.2890  -12.0950   22.0780 C   0  0  0  0  0  0  0  0  0  0  0  0
   -3.1050  -12.7530   20.8850 O   0  0  0  0  0  0  0  0  0  0  0  0
   -3.9030   -6.8540   25.1820 N   0  0  0  0  0  0  0  0  0  0  0  0
   -3.6920   -8.2360   25.6130 C   0  0  2  0  0  0  0  0  0  0  0  0
   -2.4560   -8.7950   24.9170 C   0  0  0  0  0  0  0  0  0  0  0  0
   -2.4030   -8.8180   23.6960 O   0  0  0  0  0  0  0  0  0  0  0  0
   -4.9190   -9.0630   25.2590 C   0  0  2  0  0  0  0  0  0  0  0  0
   -6.0620   -8.4680   25.8670 O   0  0  0  0  0  0  0  0  0  0  0  0
   -4.7870  -10.5280   25.6820 C   0  0  0  0  0  0  0  0  0  0  0  0
   -1.4570   -9.2000   25.7000 N   0  0  0  0  0  0  0  0  0  0  0  0
   -0.1400   -9.4340   25.1590 C   0  0  2  0  0  0  0  0  0  0  0  0
    0.3600  -10.8650   25.3750 C   0  0  0  0  0  0  0  0  0  0  0  0
    0.6630  -11.5560   24.3840 O   0  0  0  0  0  0  0  0  0  0  0  0
    0.8620   -8.4170   25.7090 C   0  0  0  0  0  0  0  0  0  0  0  0
    2.1520   -8.6860   25.2020 O   0  0  0  0  0  0  0  0  0  0  0  0
    0.4720  -11.2780   26.6460 N   0  0  0  0  0  0  0  0  0  0  0  0
    0.9530  -12.6180   26.9450 C   0  0  2  0  0  0  0  0  0  0  0  0
    0.5480  -13.1140   28.3420 C   0  0  0  0  0  0  0  0  0  0  0  0
   -0.0220  -12.3790   29.1530 O   0  0  0  0  0  0  0  0  0  0  0  0
    2.4870  -12.7190   26.7130 C   0  0  0  0  0  0  0  0  0  0  0  0
    3.3620  -11.8120   27.5160 C   0  0  0  0  0  0  0  0  0  0  0  0
    3.5790  -10.4790   27.3080 C   0  0  0  0  0  0  0  0  0  0  0  0
    4.1580  -12.1620   28.6630 C   0  0  0  0  0  0  0  0  0  0  0  0
    4.4490   -9.9820   28.2410 N   0  0  0  0  0  0  0  0  0  0  0  0
    4.7960  -10.9850   29.1050 C   0  0  0  0  0  0  0  0  0  0  0  0
    4.3660  -13.3430   29.3750 C   0  0  0  0  0  0  0  0  0  0  0  0
    5.6590  -10.9610   30.2030 C   0  0  0  0  0  0  0  0  0  0  0  0
    5.2400  -13.3200   30.4680 C   0  0  0  0  0  0  0  0  0  0  0  0
    5.8590  -12.1330   30.8810 C   0  0  0  0  0  0  0  0  0  0  0  0
    0.8330  -14.3900   28.5810 N   0  0  0  0  0  0  0  0  0  0  0  0
    0.5610  -15.0270   29.8710 C   0  0  0  0  0  0  0  0  0  0  0  0
    0.6840  -16.5320   29.8190 C   0  0  0  0  0  0  0  0  0  0  0  0
    0.6180  -17.1490   28.7600 O   0  0  0  0  0  0  0  0  0  0  0  0
    0.8720  -17.1190   30.9910 N   0  0  0  0  0  0  0  0  0  0  0  0
    1.0200  -18.5500   31.1330 C   0  0  2  0  0  0  0  0  0  0  0  0
   -0.2980  -19.2160   31.4180 C   0  0  0  0  0  0  0  0  0  0  0  0
   -0.9290  -18.9280   32.4500 O   0  0  0  0  0  0  0  0  0  0  0  0
    1.9690  -18.8240   32.2990 C   0  0  0  0  0  0  0  0  0  0  0  0
    2.3730  -20.2810   32.4200 C   0  0  0  0  0  0  0  0  0  0  0  0
    3.5840  -20.5780   31.5610 C   0  0  0  0  0  0  0  0  0  0  0  0
    4.6630  -19.9350   31.7520 O   0  0  0  0  0  0  0  0  0  0  0  0
    3.4910  -21.4920   30.6970 O   0  0  0  0  0  0  0  0  0  0  0  0
   -0.7470  -20.0900   30.5370 N   0  0  0  0  0  0  0  0  0  0  0  0
   -2.0490  -20.6890   30.7020 C   0  0  0  0  0  0  0  0  0  0  0  0
   -3.1650  -19.6370   30.6460 C   0  0  0  0  0  0  0  0  0  0  0  0
   -2.9640  -18.5300   30.1770 O   0  0  0  0  0  0  0  0  0  0  0  0
   -4.3440  -20.0130   31.1140 N   0  0  0  0  0  0  0  0  0  0  0  0
   -5.5250  -19.1360   31.0840 C   0  0  2  0  0  0  0  0  0  0  0  0
   -6.2810  -19.3190   32.3860 C   0  0  0  0  0  0  0  0  0  0  0  0
   -6.6480  -20.4490   32.7280 O   0  0  0  0  0  0  0  0  0  0  0  0
   -6.4470  -19.5200   29.9270 C   0  0  0  0  0  0  0  0  0  0  0  0
   -5.6620  -19.4370   28.2800 S   0  0  0  0  0  0  0  0  0  0  0  0
   -6.4570  -18.2330   33.1430 N   0  0  0  0  0  0  0  0  0  0  0  0
   -7.3020  -18.2500   34.3480 C   0  0  2  0  0  0  0  0  0  0  0  0
   -6.7450  -19.1170   35.4760 C   0  0  0  0  0  0  0  0  0  0  0  0
   -7.4780  -19.5040   36.3650 O   0  0  0  0  0  0  0  0  0  0  0  0
   -8.7330  -18.6720   34.0180 C   0  0  0  0  0  0  0  0  0  0  0  0
   -1.5420  -16.2920   38.5520 N   0  0  0  0  0  0  0  0  0  0  0  0
   -0.9030  -16.2850   37.2530 C   0  0  2  0  0  0  0  0  0  0  0  0
   -1.5970  -15.2620   36.3400 C   0  0  0  0  0  0  0  0  0  0  0  0
   -2.3330  -15.6240   35.4370 O   0  0  0  0  0  0  0  0  0  0  0  0
   -0.8940  -17.6870   36.6870 C   0  0  0  0  0  0  0  0  0  0  0  0
    0.1170  -17.8880   35.5960 C   0  0  0  0  0  0  0  0  0  0  0  0
    1.5640  -17.8580   36.0840 C   0  0  0  0  0  0  0  0  0  0  0  0
    1.9990  -18.7370   36.7480 O   0  0  0  0  0  0  0  0  0  0  0  0
    2.2730  -16.7730   35.7890 N   0  0  0  0  0  0  0  0  0  0  0  0
   -1.3870  -13.9640   36.6350 N   0  0  0  0  0  0  0  0  0  0  0  0
   -2.0920  -12.8880   35.9450 C   0  0  2  0  0  0  0  0  0  0  0  0
   -1.6850  -12.8060   34.4830 C   0  0  0  0  0  0  0  0  0  0  0  0
   -0.5730  -13.1710   34.1160 O   0  0  0  0  0  0  0  0  0  0  0  0
   -1.6770  -11.6220   36.7080 C   0  0  0  0  0  0  0  0  0  0  0  0
   -0.4150  -11.9760   37.4060 C   0  0  0  0  0  0  0  0  0  0  0  0
   -0.4930  -13.4570   37.6910 C   0  0  0  0  0  0  0  0  0  0  0  0
   -2.5900  -12.2920   33.6810 N   0  0  0  0  0  0  0  0  0  0  0  0
   -2.2710  -11.8940   32.3310 C   0  0  0  0  0  0  0  0  0  0  0  0
   -1.3910  -10.6460   32.2560 C   0  0  0  0  0  0  0  0  0  0  0  0
   -1.4490   -9.7540   33.1130 O   0  0  0  0  0  0  0  0  0  0  0  0
   -0.5900  -10.5840   31.1980 N   0  0  0  0  0  0  0  0  0  0  0  0
    0.2540   -9.4260   30.9540 C   0  0  2  0  0  0  0  0  0  0  0  0
   -0.2310   -8.6610   29.7200 C   0  0  0  0  0  0  0  0  0  0  0  0
   -0.5610   -9.2720   28.6900 O   0  0  0  0  0  0  0  0  0  0  0  0
    1.7230   -9.8190   30.7870 C   0  0  0  0  0  0  0  0  0  0  0  0
    2.6080   -8.5740   30.7370 C   0  0  0  0  0  0  0  0  0  0  0  0
    2.1510  -10.7630   31.9080 C   0  0  0  0  0  0  0  0  0  0  0  0
   -0.2180   -7.3280   29.8570 N   0  0  0  0  0  0  0  0  0  0  0  0
   -0.7560   -6.4030   28.8790 C   0  0  2  0  0  0  0  0  0  0  0  0
    0.2300   -5.2980   28.6010 C   0  0  0  0  0  0  0  0  0  0  0  0
    0.9850   -4.8890   29.4800 O   0  0  0  0  0  0  0  0  0  0  0  0
   -2.0780   -5.7860   29.3740 C   0  0  0  0  0  0  0  0  0  0  0  0
   -3.1380   -6.8130   29.6960 C   0  0  0  0  0  0  0  0  0  0  0  0
   -3.1060   -7.5400   30.8780 C   0  0  0  0  0  0  0  0  0  0  0  0
   -4.1770   -7.0730   28.7990 C   0  0  0  0  0  0  0  0  0  0  0  0
   -4.0860   -8.5110   31.1490 C   0  0  0  0  0  0  0  0  0  0  0  0
   -5.1340   -8.0380   29.0610 C   0  0  0  0  0  0  0  0  0  0  0  0
   -5.0930   -8.7440   30.2410 C   0  0  0  0  0  0  0  0  0  0  0  0
   -6.0570   -9.7080   30.4750 O   0  0  0  0  0  0  0  0  0  0  0  0
  2  1  1  1
  3  2  1  0
  4  3  2  0
  5  2  1  0
  6  5  1  0
  7  6  1  0
  8  6  2  0
  9  7  2  0
 10  9  1  0
 10  8  1  0
 12 11  1  1
 13 12  1  0
 14 13  2  0
 15 12  1  0
 16 15  1  0
 17 16  2  0
 18 16  1  0
 20 19  1  6
 21 20  1  0
 22 21  2  0
 23 20  1  0
 24 23  1  0
 25 24  2  0
 26 24  1  0
 27 25  1  0
 28 26  2  0
 29 28  1  0
 29 27  2  0
 30 29  1  0
 31 21  1  0
 32 31  1  0
 33 32  1  0
 34 33  2  0
 32 35  1  1
 36 35  1  0
 37 36  1  0
 38 37  1  0
 39 38  1  0
 40 33  1  0
 41 40  1  1
 42 41  1  0
 43 42  2  0
 44 41  1  0
 45 44  1  0
 46 44  1  0
 47 42  1  0
 48 47  1  0
 49 48  1  0
 50 49  2  0
 48 51  1  6
 52 51  1  0
 53 49  1  0
 54 53  1  0
 55 54  1  0
 56 55  2  0
 54 57  1  6
 58 57  1  0
 59 58  1  0
 60 59  2  0
 61 59  1  0
 62 55  1  0
 63 62  1  0
 64 63  1  0
 65 64  2  0
 67 66  1  1
 68 67  1  0
 69 68  2  0
 70 67  1  0
 71 70  1  0
 72 71  2  0
 73 71  1  0
 75 74  1  1
 76 75  1  0
 77 76  2  0
 78 75  1  0
 79 78  1  0
 80 79  2  0
 81 79  1  0
 82 80  1  0
 83 81  2  0
 84 83  1  0
 84 82  2  0
 86 85  1  1
 87 86  1  0
 88 87  2  0
 89 86  1  0
 90 89  1  0
 91 90  1  0
 92 91  2  0
 93 91  1  0
 94 87  1  0
 95 94  1  0
 96 95  1  0
 97 96  2  0
 95 98  1  1
 99 98  1  0
100 99  1  0
101100  1  0
102101  1  0
104103  1  1
105104  1  0
106105  2  0
107104  1  0
108107  1  0
109108  2  0
110108  1  0
111109  1  0
112110  2  0
113112  1  0
113111  2  0
114113  1  0
116115  1  1
117116  1  0
118117  2  0
119116  1  0
120119  1  0
121120  2  0
122120  1  0
123121  1  0
124122  2  0
125124  1  0
125123  2  0
126125  1  0
128127  1  0
129128  1  0
130129  2  0
128131  1  6
133132  1  1
134133  1  0
135134  2  0
136133  1  0
137136  1  0
138137  2  0
139137  1  0
140134  1  0
141140  1  0
142141  1  0
143142  2  0
141144  1  1
145142  1  0
146145  1  0
147146  1  0
148147  2  0
146149  1  6
150149  1  0
151147  1  0
152151  1  0
153152  1  0
154153  2  0
152155  1  6
156155  1  0
157156  1  0
158157  1  0
159158  1  0
160153  1  0
161160  1  0
162161  1  0
163162  2  0
165164  1  6
166165  1  0
167166  2  0
168165  1  0
169168  1  0
171170  1  6
172171  1  0
173172  2  0
174171  1  0
175174  1  0
174176  1  1
177172  1  0
178177  1  0
179178  1  0
180179  2  0
178181  1  1
182181  1  0
183179  1  0
184183  1  0
185184  1  0
186185  2  0
184187  1  1
188187  1  0
189188  2  0
190188  1  0
191189  1  0
192190  2  0
192191  1  0
193190  1  0
194192  1  0
195193  2  0
196195  1  0
196194  2  0
197185  1  0
198197  1  0
199198  1  0
200199  2  0
201199  1  0
202201  1  0
203202  1  0
204203  2  0
202205  1  1
206205  1  0
207206  1  0
208207  2  0
209207  1  0
210203  1  0
211210  1  0
212211  1  0
213212  2  0
214212  1  0
215214  1  0
216215  1  0
217216  2  0
215218  1  6
219150  1  0
219218  1  0
220216  1  0
221220  1  0
222221  1  0
223222  2  0
221224  1  6
226225  1  1
227226  1  0
228227  2  0
229226  1  0
230229  1  0
231230  1  0
232231  2  0
233231  1  0
234227  1  0
235234  1  0
235236  1  6
237236  2  0
238235  1  0
239238  1  0
240239  1  0
240234  1  0
241236  1  0
242241  1  0
243242  1  0
244243  2  0
245243  1  0
246245  1  6
247246  1  0
248247  2  0
249246  1  0
250249  1  0
251249  1  0
252247  1  0
253252  1  0
254253  1  0
255254  2  0
253256  1  1
257256  1  0
258257  2  0
259257  1  0
260258  1  0
261259  2  0
262261  1  0
262260  2  0
263262  1  0
M  END
$$$$
