
     RDKit          3D

149146  0  0  0  0  0  0  0  0999 V2000
   -7.3450  -13.8180    9.0390 N   0  0  0  0  0  0  0  0  0  0  0  0
   -6.4800  -14.1480    7.9490 C   0  0  2  0  0  0  0  0  0  0  0  0
   -7.2490  -15.0690    7.0390 C   0  0  0  0  0  0  0  0  0  0  0  0
   -7.8780  -16.0280    7.5020 O   0  0  0  0  0  0  0  0  0  0  0  0
   -5.2130  -14.8570    8.4560 C   0  0  0  0  0  0  0  0  0  0  0  0
   -4.5080  -15.6040    7.3430 C   0  0  0  0  0  0  0  0  0  0  0  0
   -4.2610  -13.8330    9.0350 C   0  0  0  0  0  0  0  0  0  0  0  0
   -7.1610  -14.7900    5.7390 N   0  0  0  0  0  0  0  0  0  0  0  0
   -7.7660  -15.6430    4.7070 C   0  0  2  0  0  0  0  0  0  0  0  0
   -6.6780  -16.2960    3.8550 C   0  0  0  0  0  0  0  0  0  0  0  0
   -5.9110  -15.6240    3.1700 O   0  0  0  0  0  0  0  0  0  0  0  0
   -8.6960  -14.8590    3.7860 C   0  0  0  0  0  0  0  0  0  0  0  0
   -9.4050  -15.7860    2.7870 C   0  0  0  0  0  0  0  0  0  0  0  0
  -10.3400  -15.0590    1.8540 C   0  0  0  0  0  0  0  0  0  0  0  0
  -10.8050  -15.9510    0.7040 C   0  0  0  0  0  0  0  0  0  0  0  0
  -11.7120  -17.0020    1.2060 N   0  0  0  0  0  0  0  0  0  0  0  0
   -6.6080  -17.6130    3.9160 N   0  0  0  0  0  0  0  0  0  0  0  0
   -5.7080  -18.3580    3.0300 C   0  0  2  0  0  0  0  0  0  0  0  0
   -6.6080  -19.2000    2.1930 C   0  0  0  0  0  0  0  0  0  0  0  0
   -7.3510  -18.6560    1.3870 O   0  0  0  0  0  0  0  0  0  0  0  0
   -4.7090  -19.1670    3.8410 C   0  0  0  0  0  0  0  0  0  0  0  0
   -3.7910  -18.2550    4.6420 C   0  0  0  0  0  0  0  0  0  0  0  0
   -3.0710  -19.0820    5.7050 C   0  0  0  0  0  0  0  0  0  0  0  0
   -2.8110  -17.5100    3.7530 C   0  0  0  0  0  0  0  0  0  0  0  0
   -6.6210  -20.5090    2.3700 N   0  0  0  0  0  0  0  0  0  0  0  0
   -7.7310  -21.2440    1.7450 C   0  0  2  0  0  0  0  0  0  0  0  0
   -8.9540  -20.9780    2.6110 C   0  0  0  0  0  0  0  0  0  0  0  0
   -9.9540  -20.4170    2.1440 O   0  0  0  0  0  0  0  0  0  0  0  0
   -7.4570  -22.7430    1.6230 C   0  0  2  0  0  0  0  0  0  0  0  0
   -6.2140  -22.9240    0.9380 O   0  0  0  0  0  0  0  0  0  0  0  0
   -8.5720  -23.4260    0.8300 C   0  0  0  0  0  0  0  0  0  0  0  0
   -8.8380  -21.3190    3.8880 N   0  0  0  0  0  0  0  0  0  0  0  0
   -9.8930  -21.0330    4.8310 C   0  0  2  0  0  0  0  0  0  0  0  0
   -9.6220  -19.6740    5.5100 C   0  0  0  0  0  0  0  0  0  0  0  0
   -8.5560  -19.0640    5.3370 O   0  0  0  0  0  0  0  0  0  0  0  0
  -10.0040  -22.1630    5.8480 C   0  0  0  0  0  0  0  0  0  0  0  0
  -10.5740  -19.2180    6.3030 N   0  0  0  0  0  0  0  0  0  0  0  0
  -10.4430  -17.9190    6.9630 C   0  0  2  0  0  0  0  0  0  0  0  0
  -10.6140  -18.1360    8.4560 C   0  0  0  0  0  0  0  0  0  0  0  0
  -11.5110  -18.8620    8.8570 O   0  0  0  0  0  0  0  0  0  0  0  0
  -11.5030  -16.9570    6.4370 C   0  0  0  0  0  0  0  0  0  0  0  0
  -11.4080  -15.5680    7.0280 C   0  0  0  0  0  0  0  0  0  0  0  0
  -12.3390  -14.5790    6.3630 C   0  0  0  0  0  0  0  0  0  0  0  0
  -12.4700  -14.5520    5.1340 O   0  0  0  0  0  0  0  0  0  0  0  0
  -12.9570  -13.7320    7.1670 N   0  0  0  0  0  0  0  0  0  0  0  0
   -9.7530  -17.5230    9.2630 N   0  0  0  0  0  0  0  0  0  0  0  0
   -9.8320  -17.6540   10.7340 C   0  0  2  0  0  0  0  0  0  0  0  0
   -9.5470  -16.3090   11.4590 C   0  0  0  0  0  0  0  0  0  0  0  0
   -8.7030  -15.5110   11.0440 O   0  0  0  0  0  0  0  0  0  0  0  0
   -8.8520  -18.6990   11.2620 C   0  0  0  0  0  0  0  0  0  0  0  0
   -9.1610  -20.1660   11.0080 C   0  0  0  0  0  0  0  0  0  0  0  0
   -8.2310  -20.9940   11.9140 C   0  0  0  0  0  0  0  0  0  0  0  0
   -7.9960  -22.3740   11.4670 N   0  0  0  0  0  0  0  0  0  0  0  0
   -7.1940  -23.2550   12.0830 C   0  0  0  0  0  0  0  0  0  0  0  0
   -6.5330  -22.9260   13.1940 N   0  0  0  0  0  0  0  0  0  0  0  0
   -7.0610  -24.4850   11.5860 N   0  0  0  0  0  0  0  0  0  0  0  0
   -7.7150  -14.4910   14.2110 N   0  0  0  0  0  0  0  0  0  0  0  0
   -6.4010  -14.6620   14.8530 C   0  0  2  0  0  0  0  0  0  0  0  0
   -6.2420  -13.7990   16.0780 C   0  0  0  0  0  0  0  0  0  0  0  0
   -5.7370  -14.2620   17.0780 O   0  0  0  0  0  0  0  0  0  0  0  0
   -5.2420  -14.3190   13.9160 C   0  0  0  0  0  0  0  0  0  0  0  0
   -4.5290  -15.4980   13.2960 C   0  0  0  0  0  0  0  0  0  0  0  0
   -5.4820  -16.4370   12.6220 C   0  0  0  0  0  0  0  0  0  0  0  0
   -3.4730  -15.0750   12.2890 C   0  0  0  0  0  0  0  0  0  0  0  0
   -6.6570  -12.5390   16.0000 N   0  0  0  0  0  0  0  0  0  0  0  0
   -6.4050  -11.5820   17.0830 C   0  0  2  0  0  0  0  0  0  0  0  0
   -7.5290  -10.5870   17.2170 C   0  0  0  0  0  0  0  0  0  0  0  0
   -8.2730  -10.3630   16.2730 O   0  0  0  0  0  0  0  0  0  0  0  0
   -5.1200  -10.7780   16.8090 C   0  0  0  0  0  0  0  0  0  0  0  0
   -3.5650  -11.5510   17.2910 S   0  0  0  0  0  0  0  0  0  0  0  0
    2.6630   -8.9970   18.1670 N   0  0  0  0  0  0  0  0  0  0  0  0
    2.9240  -10.4400   17.9930 C   0  0  2  0  0  0  0  0  0  0  0  0
    1.9200  -11.0790   17.0230 C   0  0  0  0  0  0  0  0  0  0  0  0
    2.2090  -12.1160   16.4330 O   0  0  0  0  0  0  0  0  0  0  0  0
    2.9900  -11.2100   19.3240 C   0  0  0  0  0  0  0  0  0  0  0  0
    1.6610  -11.4120   19.9660 C   0  0  0  0  0  0  0  0  0  0  0  0
    1.1890  -10.5890   20.9630 N   0  0  0  0  0  0  0  0  0  0  0  0
    0.6770  -12.3210   19.7260 C   0  0  0  0  0  0  0  0  0  0  0  0
   -0.0060  -11.0020   21.3430 C   0  0  0  0  0  0  0  0  0  0  0  0
   -0.3510  -12.0410   20.5990 N   0  0  0  0  0  0  0  0  0  0  0  0
    0.8010  -10.3870   16.8080 N   0  0  0  0  0  0  0  0  0  0  0  0
   -0.2100  -10.8640   15.8880 C   0  0  2  0  0  0  0  0  0  0  0  0
    0.3520  -11.0470   14.4750 C   0  0  0  0  0  0  0  0  0  0  0  0
   -0.1720  -11.8610   13.7160 O   0  0  0  0  0  0  0  0  0  0  0  0
   -1.4130   -9.9170   15.8720 C   0  0  0  0  0  0  0  0  0  0  0  0
   -2.3090   -9.9410   17.4480 S   0  0  0  0  0  0  0  0  0  0  0  0
    1.4200  -10.3080   14.1540 N   0  0  0  0  0  0  0  0  0  0  0  0
    2.0740  -10.3330   12.8430 C   0  0  2  0  0  0  0  0  0  0  0  0
    3.3750  -11.1360   12.7460 C   0  0  0  0  0  0  0  0  0  0  0  0
    4.0260  -11.1240   11.6970 O   0  0  0  0  0  0  0  0  0  0  0  0
    2.3270   -8.8890   12.3880 C   0  0  0  0  0  0  0  0  0  0  0  0
    1.0640   -8.0900   12.2930 C   0  0  0  0  0  0  0  0  0  0  0  0
    0.1990   -8.2890   11.2570 C   0  0  0  0  0  0  0  0  0  0  0  0
    0.7360   -7.1780   13.2850 C   0  0  0  0  0  0  0  0  0  0  0  0
   -0.9880   -7.5830   11.1870 C   0  0  0  0  0  0  0  0  0  0  0  0
   -0.4500   -6.4890   13.2450 C   0  0  0  0  0  0  0  0  0  0  0  0
   -1.3250   -6.6740   12.1920 C   0  0  0  0  0  0  0  0  0  0  0  0
    3.7290  -11.8510   13.8170 N   0  0  0  0  0  0  0  0  0  0  0  0
    4.9840  -12.6650   13.8290 C   0  0  2  0  0  0  0  0  0  0  0  0
    4.9870  -13.7110   12.7070 C   0  0  0  0  0  0  0  0  0  0  0  0
    6.0090  -13.9750   12.1100 O   0  0  0  0  0  0  0  0  0  0  0  0
    5.1580  -13.4040   15.1690 C   0  0  0  0  0  0  0  0  0  0  0  0
    5.6340  -12.5190   16.3070 C   0  0  0  0  0  0  0  0  0  0  0  0
    5.8400  -11.3210   16.1370 O   0  0  0  0  0  0  0  0  0  0  0  0
    5.8010  -13.0480   17.4380 O   0  0  0  0  0  0  0  0  0  0  0  0
    3.8330  -14.3420   12.4660 N   0  0  0  0  0  0  0  0  0  0  0  0
    3.7210  -15.4350   11.5090 C   0  0  0  0  0  0  0  0  0  0  0  0
    3.4260  -14.9890   10.0980 C   0  0  0  0  0  0  0  0  0  0  0  0
    3.9710  -15.5220    9.1670 O   0  0  0  0  0  0  0  0  0  0  0  0
    2.5500  -13.9920    9.9630 N   0  0  0  0  0  0  0  0  0  0  0  0
    2.0910  -13.4710    8.6700 C   0  0  2  0  0  0  0  0  0  0  0  0
    2.2590  -11.9680    8.6610 C   0  0  0  0  0  0  0  0  0  0  0  0
    1.3130  -11.2140    8.9380 O   0  0  0  0  0  0  0  0  0  0  0  0
    0.6260  -13.8460    8.4620 C   0  0  0  0  0  0  0  0  0  0  0  0
    0.4920  -15.3750    8.3470 C   0  0  0  0  0  0  0  0  0  0  0  0
   -0.8580  -15.8560    8.8570 C   0  0  0  0  0  0  0  0  0  0  0  0
    0.7840  -15.8160    6.9180 C   0  0  0  0  0  0  0  0  0  0  0  0
   10.4220  -10.0150   17.8190 N   0  0  0  0  0  0  0  0  0  0  0  0
    9.6050  -11.1670   17.4770 C   0  0  2  0  0  0  0  0  0  0  0  0
    9.7030  -12.2600   18.5500 C   0  0  0  0  0  0  0  0  0  0  0  0
   10.8130  -12.6080   19.0360 O   0  0  0  0  0  0  0  0  0  0  0  0
    9.9630  -11.7490   16.0860 C   0  0  0  0  0  0  0  0  0  0  0  0
    9.2480  -13.0890   15.8080 C   0  0  0  0  0  0  0  0  0  0  0  0
    9.6450  -10.7360   14.9820 C   0  0  0  0  0  0  0  0  0  0  0  0
    8.5160  -12.7260   18.9470 N   0  0  0  0  0  0  0  0  0  0  0  0
    8.3110  -13.8010   19.9250 C   0  0  2  0  0  0  0  0  0  0  0  0
    8.5110  -13.4150   21.3930 C   0  0  0  0  0  0  0  0  0  0  0  0
    8.3670  -14.2550   22.2640 O   0  0  0  0  0  0  0  0  0  0  0  0
    9.1320  -15.0720   19.5690 C   0  0  0  0  0  0  0  0  0  0  0  0
   10.4140  -15.0290   20.1910 O   0  0  0  0  0  0  0  0  0  0  0  0
   -6.2260  -17.7260   24.5650 N   0  0  0  0  0  0  0  0  0  0  0  0
   -5.7600  -17.7160   23.1820 C   0  0  2  0  0  0  0  0  0  0  0  0
   -6.8340  -17.2150   22.2420 C   0  0  0  0  0  0  0  0  0  0  0  0
   -7.9920  -17.6290   22.3360 O   0  0  0  0  0  0  0  0  0  0  0  0
   -5.3250  -19.1140   22.7410 C   0  0  0  0  0  0  0  0  0  0  0  0
   -4.5920  -19.1340   21.3740 C   0  0  0  0  0  0  0  0  0  0  0  0
   -3.9430  -20.4970   21.1330 C   0  0  0  0  0  0  0  0  0  0  0  0
   -3.2350  -20.5010   19.7630 C   0  0  0  0  0  0  0  0  0  0  0  0
   -2.6040  -21.8380   19.5300 N   0  0  0  0  0  0  0  0  0  0  0  0
   -6.4510  -16.3060   21.3450 N   0  0  0  0  0  0  0  0  0  0  0  0
   -7.4170  -15.6340   20.4620 C   0  0  0  0  0  0  0  0  0  0  0  0
   -7.9390  -14.2890   20.9610 C   0  0  0  0  0  0  0  0  0  0  0  0
   -8.5200  -13.5340   20.1860 O   0  0  0  0  0  0  0  0  0  0  0  0
   -5.7080  -12.1600   22.2390 N   0  0  0  0  0  0  0  0  0  0  0  0
   -4.5520  -11.2730   22.1480 C   0  0  2  0  0  0  0  0  0  0  0  0
   -4.6590  -10.1820   21.0800 C   0  0  0  0  0  0  0  0  0  0  0  0
   -5.3550  -10.3250   20.0620 O   0  0  0  0  0  0  0  0  0  0  0  0
   -3.2890  -12.0950   22.0780 C   0  0  0  0  0  0  0  0  0  0  0  0
   -3.1050  -12.7530   20.8850 O   0  0  0  0  0  0  0  0  0  0  0  0
  2  1  1  1
  3  2  1  0
  4  3  2  0
  5  2  1  0
  6  5  1  0
  7  5  1  0
  8  3  1  0
  9  8  1  0
 10  9  1  0
 11 10  2  0
  9 12  1  6
 13 12  1  0
 14 13  1  0
 15 14  1  0
 16 15  1  0
 17 10  1  0
 18 17  1  0
 19 18  1  0
 20 19  2  0
 18 21  1  1
 22 21  1  0
 23 22  1  0
 24 22  1  0
 25 19  1  0
 26 25  1  1
 27 26  1  0
 28 27  2  0
 29 26  1  0
 30 29  1  0
 29 31  1  6
 32 27  1  0
 33 32  1  0
 34 33  1  0
 35 34  2  0
 33 36  1  1
 37 34  1  0
 38 37  1  0
 39 38  1  0
 40 39  2  0
 38 41  1  6
 42 41  1  0
 43 42  1  0
 44 43  2  0
 45 43  1  0
 46 39  1  0
 47 46  1  0
 48 47  1  0
 49 48  2  0
 47 50  1  1
 51 50  1  0
 52 51  1  0
 53 52  1  0
 54 53  1  0
 55 54  1  0
 56 54  2  0
 58 57  1  6
 59 58  1  0
 60 59  2  0
 61 58  1  0
 62 61  1  0
 63 62  1  0
 64 62  1  0
 65 59  1  0
 66 65  1  0
 67 66  1  0
 68 67  2  0
 66 69  1  6
 70 69  1  0
 72 71  1  1
 73 72  1  0
 74 73  2  0
 75 72  1  0
 76 75  1  0
 77 76  1  0
 78 76  2  0
 79 77  2  0
 80 79  1  0
 80 78  1  0
 81 73  1  0
 82 81  1  0
 83 82  1  0
 84 83  2  0
 82 85  1  6
 86 70  1  0
 86 85  1  0
 87 83  1  0
 88 87  1  0
 89 88  1  0
 90 89  2  0
 88 91  1  1
 92 91  1  0
 93 92  2  0
 94 92  1  0
 95 93  1  0
 96 94  2  0
 97 96  1  0
 97 95  2  0
 98 89  1  0
 99 98  1  0
100 99  1  0
101100  2  0
 99102  1  1
103102  1  0
104103  2  0
105103  1  0
106100  1  0
107106  1  0
108107  1  0
109108  2  0
110108  1  0
111110  1  0
112111  1  0
113112  2  0
111114  1  1
115114  1  0
116115  1  0
117115  1  0
119118  1  1
120119  1  0
121120  2  0
122119  1  0
123122  1  0
124122  1  0
125120  1  0
126125  1  0
127126  1  0
128127  2  0
126129  1  6
130129  1  0
132131  1  1
133132  1  0
134133  2  0
135132  1  0
136135  1  0
137136  1  0
138137  1  0
139138  1  0
140133  1  0
141140  1  0
142141  1  0
143142  2  0
145144  1  6
146145  1  0
147146  2  0
148145  1  0
149148  1  0
M  END
$$$$
