
     RDKit          3D

130128  0  0  0  0  0  0  0  0999 V2000
   34.7600   85.2210  -11.0660 N   0  0  0  0  0  0  0  0  0  0  0  0
   34.8080   85.5020  -12.4940 C   0  0  2  0  0  0  0  0  0  0  0  0
   33.4220   85.4120  -13.1560 C   0  0  0  0  0  0  0  0  0  0  0  0
   33.0390   86.2890  -13.9340 O   0  0  0  0  0  0  0  0  0  0  0  0
   35.7700   84.5280  -13.1660 C   0  0  0  0  0  0  0  0  0  0  0  0
   36.6720   85.1540  -14.2070 C   0  0  0  0  0  0  0  0  0  0  0  0
   35.9040   85.4900  -15.4820 C   0  0  0  0  0  0  0  0  0  0  0  0
   36.6700   86.4800  -16.3610 C   0  0  0  0  0  0  0  0  0  0  0  0
   36.0590   86.6070  -17.7240 N   0  0  0  0  0  0  0  0  0  0  0  0
   31.2690   88.2970  -11.9940 N   0  0  0  0  0  0  0  0  0  0  0  0
   31.7180   89.5120  -12.6650 C   0  0  2  0  0  0  0  0  0  0  0  0
   31.1520   89.5950  -14.0860 C   0  0  0  0  0  0  0  0  0  0  0  0
   30.6970   90.6470  -14.5220 O   0  0  0  0  0  0  0  0  0  0  0  0
   33.2550   89.5870  -12.7330 C   0  0  2  0  0  0  0  0  0  0  0  0
   33.7890   89.7520  -11.4110 O   0  0  0  0  0  0  0  0  0  0  0  0
   33.6860   90.7670  -13.5900 C   0  0  0  0  0  0  0  0  0  0  0  0
   31.1970   88.4870  -14.8140 N   0  0  0  0  0  0  0  0  0  0  0  0
   30.6720   88.4770  -16.1690 C   0  0  2  0  0  0  0  0  0  0  0  0
   29.1560   88.6830  -16.2080 C   0  0  0  0  0  0  0  0  0  0  0  0
   28.6460   89.3820  -17.0810 O   0  0  0  0  0  0  0  0  0  0  0  0
   31.0770   87.1980  -16.8830 C   0  0  0  0  0  0  0  0  0  0  0  0
   32.4820   87.0720  -16.8660 O   0  0  0  0  0  0  0  0  0  0  0  0
   28.4370   88.0900  -15.2600 N   0  0  0  0  0  0  0  0  0  0  0  0
   26.9920   88.2880  -15.1810 C   0  0  2  0  0  0  0  0  0  0  0  0
   26.6860   89.7620  -14.9380 C   0  0  0  0  0  0  0  0  0  0  0  0
   25.7340   90.3130  -15.4970 O   0  0  0  0  0  0  0  0  0  0  0  0
   26.3780   87.4460  -14.0560 C   0  0  0  0  0  0  0  0  0  0  0  0
   26.5390   85.9440  -14.2160 C   0  0  0  0  0  0  0  0  0  0  0  0
   26.6870   85.3670  -15.4730 C   0  0  0  0  0  0  0  0  0  0  0  0
   26.5320   85.1060  -13.1020 C   0  0  0  0  0  0  0  0  0  0  0  0
   26.8340   84.0000  -15.6170 C   0  0  0  0  0  0  0  0  0  0  0  0
   26.6740   83.7400  -13.2340 C   0  0  0  0  0  0  0  0  0  0  0  0
   26.8250   83.1910  -14.4930 C   0  0  0  0  0  0  0  0  0  0  0  0
   26.9600   81.8300  -14.6370 O   0  0  0  0  0  0  0  0  0  0  0  0
   28.6540   92.3200  -15.7890 N   0  0  0  0  0  0  0  0  0  0  0  0
   28.9900   93.0130  -17.0320 C   0  0  2  0  0  0  0  0  0  0  0  0
   27.8630   92.9340  -18.0540 C   0  0  0  0  0  0  0  0  0  0  0  0
   27.6150   93.9020  -18.7840 O   0  0  0  0  0  0  0  0  0  0  0  0
   30.2850   92.4650  -17.6620 C   0  0  0  0  0  0  0  0  0  0  0  0
   31.5470   92.5800  -16.8020 C   0  0  0  0  0  0  0  0  0  0  0  0
   32.2390   93.9440  -16.8790 C   0  0  0  0  0  0  0  0  0  0  0  0
   31.6310   94.9180  -17.3850 O   0  0  0  0  0  0  0  0  0  0  0  0
   33.4040   94.0420  -16.4280 O   0  0  0  0  0  0  0  0  0  0  0  0
   27.1970   91.7810  -18.1180 N   0  0  0  0  0  0  0  0  0  0  0  0
   26.0950   91.5880  -19.0520 C   0  0  2  0  0  0  0  0  0  0  0  0
   24.9280   92.5000  -18.7130 C   0  0  0  0  0  0  0  0  0  0  0  0
   24.2240   92.9660  -19.6050 O   0  0  0  0  0  0  0  0  0  0  0  0
   25.6100   90.1380  -19.0500 C   0  0  0  0  0  0  0  0  0  0  0  0
   26.7010   89.0000  -19.9550 S   0  0  0  0  0  0  0  0  0  0  0  0
   22.0070   96.7810  -22.3780 N   0  0  0  0  0  0  0  0  0  0  0  0
   21.2830   95.7860  -23.1550 C   0  0  2  0  0  0  0  0  0  0  0  0
   22.3110   94.9790  -23.9210 C   0  0  0  0  0  0  0  0  0  0  0  0
   23.2910   95.5330  -24.4020 O   0  0  0  0  0  0  0  0  0  0  0  0
   20.3110   96.4380  -24.1440 C   0  0  0  0  0  0  0  0  0  0  0  0
   19.1110   97.1310  -23.5170 C   0  0  0  0  0  0  0  0  0  0  0  0
   17.9060   97.0240  -24.4480 C   0  0  0  0  0  0  0  0  0  0  0  0
   16.9890   98.2110  -24.3060 C   0  0  0  0  0  0  0  0  0  0  0  0
   15.6790   97.9200  -23.6500 N   0  0  0  0  0  0  0  0  0  0  0  0
   22.0770   93.6740  -24.0160 N   0  0  0  0  0  0  0  0  0  0  0  0
   22.9560   92.7410  -24.7000 C   0  0  2  0  0  0  0  0  0  0  0  0
   22.1120   91.5780  -25.2000 C   0  0  0  0  0  0  0  0  0  0  0  0
   20.9280   91.4670  -24.8700 O   0  0  0  0  0  0  0  0  0  0  0  0
   24.0310   92.1950  -23.7490 C   0  0  0  0  0  0  0  0  0  0  0  0
   25.1890   93.1630  -23.5380 C   0  0  0  0  0  0  0  0  0  0  0  0
   25.9580   93.4380  -24.4600 O   0  0  0  0  0  0  0  0  0  0  0  0
   25.3280   93.6710  -22.3180 N   0  0  0  0  0  0  0  0  0  0  0  0
   22.7260   90.7140  -25.9960 N   0  0  0  0  0  0  0  0  0  0  0  0
   22.0900   89.5000  -26.4680 C   0  0  2  0  0  0  0  0  0  0  0  0
   21.6830   88.6810  -25.2420 C   0  0  0  0  0  0  0  0  0  0  0  0
   22.4350   88.6300  -24.2530 O   0  0  0  0  0  0  0  0  0  0  0  0
   23.0990   88.7230  -27.3140 C   0  0  0  0  0  0  0  0  0  0  0  0
   22.5100   87.4720  -27.9410 C   0  0  0  0  0  0  0  0  0  0  0  0
   22.1480   86.5280  -27.2430 O   0  0  0  0  0  0  0  0  0  0  0  0
   22.4340   87.4520  -29.2670 N   0  0  0  0  0  0  0  0  0  0  0  0
   20.4940   88.0490  -25.2900 N   0  0  0  0  0  0  0  0  0  0  0  0
   19.9640   87.2740  -24.1630 C   0  0  2  0  0  0  0  0  0  0  0  0
   20.8970   86.1520  -23.7390 C   0  0  0  0  0  0  0  0  0  0  0  0
   20.7420   85.6630  -22.6330 O   0  0  0  0  0  0  0  0  0  0  0  0
   18.6820   86.6440  -24.7270 C   0  0  0  0  0  0  0  0  0  0  0  0
   18.3470   87.4020  -25.9360 C   0  0  0  0  0  0  0  0  0  0  0  0
   19.6000   88.0120  -26.4650 C   0  0  0  0  0  0  0  0  0  0  0  0
   21.8310   85.7490  -24.5960 N   0  0  0  0  0  0  0  0  0  0  0  0
   22.7290   84.6330  -24.2840 C   0  0  2  0  0  0  0  0  0  0  0  0
   24.0440   85.0650  -23.6320 C   0  0  0  0  0  0  0  0  0  0  0  0
   24.9030   84.2320  -23.3260 O   0  0  0  0  0  0  0  0  0  0  0  0
   23.0160   83.8150  -25.5460 C   0  0  0  0  0  0  0  0  0  0  0  0
   21.7770   83.2700  -26.1940 C   0  0  0  0  0  0  0  0  0  0  0  0
   20.8870   82.4560  -25.5260 N   0  0  0  0  0  0  0  0  0  0  0  0
   21.2790   83.4330  -27.4450 C   0  0  0  0  0  0  0  0  0  0  0  0
   19.8940   82.1330  -26.3410 C   0  0  0  0  0  0  0  0  0  0  0  0
   20.1070   82.7120  -27.5080 N   0  0  0  0  0  0  0  0  0  0  0  0
   24.1890   86.3670  -23.4150 N   0  0  0  0  0  0  0  0  0  0  0  0
   25.4170   86.9190  -22.8520 C   0  0  2  0  0  0  0  0  0  0  0  0
   25.7390   86.2560  -21.5070 C   0  0  0  0  0  0  0  0  0  0  0  0
   26.8670   85.8100  -21.2720 O   0  0  0  0  0  0  0  0  0  0  0  0
   25.2710   88.4340  -22.6970 C   0  0  0  0  0  0  0  0  0  0  0  0
   26.6900   89.2890  -21.9780 S   0  0  0  0  0  0  0  0  0  0  0  0
   26.9760   82.5540  -21.7330 N   0  0  0  0  0  0  0  0  0  0  0  0
   28.3560   82.2890  -22.1740 C   0  0  2  0  0  0  0  0  0  0  0  0
   29.3740   82.3520  -21.0170 C   0  0  0  0  0  0  0  0  0  0  0  0
   30.4230   81.6970  -21.0590 O   0  0  0  0  0  0  0  0  0  0  0  0
   28.7780   83.2190  -23.3340 C   0  0  0  0  0  0  0  0  0  0  0  0
   27.9200   83.0810  -24.6180 C   0  0  0  0  0  0  0  0  0  0  0  0
   28.5580   83.6840  -25.9040 C   0  0  0  0  0  0  0  0  0  0  0  0
   29.4940   84.5370  -25.8370 O   0  0  0  0  0  0  0  0  0  0  0  0
   28.0980   83.2890  -27.0070 O   0  0  0  0  0  0  0  0  0  0  0  0
   29.0620   83.1380  -19.9890 N   0  0  0  0  0  0  0  0  0  0  0  0
   29.9030   83.2040  -18.8010 C   0  0  0  0  0  0  0  0  0  0  0  0
   29.7550   81.9460  -17.9610 C   0  0  0  0  0  0  0  0  0  0  0  0
   30.7100   81.4640  -17.3440 O   0  0  0  0  0  0  0  0  0  0  0  0
   29.0720   78.9930  -19.2380 N   0  0  0  0  0  0  0  0  0  0  0  0
   29.8420   78.0000  -19.9780 C   0  0  2  0  0  0  0  0  0  0  0  0
   31.3380   78.0570  -19.6370 C   0  0  0  0  0  0  0  0  0  0  0  0
   32.0000   77.0230  -19.5390 O   0  0  0  0  0  0  0  0  0  0  0  0
   29.6350   78.1980  -21.4840 C   0  0  0  0  0  0  0  0  0  0  0  0
   30.4830   77.2980  -22.3820 C   0  0  0  0  0  0  0  0  0  0  0  0
   30.3440   77.7060  -23.8570 C   0  0  0  0  0  0  0  0  0  0  0  0
   30.8690   79.0530  -24.1090 N   0  0  0  0  0  0  0  0  0  0  0  0
   30.7040   79.7390  -25.2410 C   0  0  0  0  0  0  0  0  0  0  0  0
   30.0130   79.2170  -26.2490 N   0  0  0  0  0  0  0  0  0  0  0  0
   31.2280   80.9540  -25.3660 N   0  0  0  0  0  0  0  0  0  0  0  0
   31.8710   79.2650  -19.4680 N   0  0  0  0  0  0  0  0  0  0  0  0
   33.2880   79.4320  -19.1560 C   0  0  2  0  0  0  0  0  0  0  0  0
   33.5880   78.9510  -17.7370 C   0  0  0  0  0  0  0  0  0  0  0  0
   34.6580   78.4050  -17.4700 O   0  0  0  0  0  0  0  0  0  0  0  0
   33.7190   80.8960  -19.3190 C   0  0  0  0  0  0  0  0  0  0  0  0
   35.2140   81.1190  -19.0780 C   0  0  0  0  0  0  0  0  0  0  0  0
   35.5890   82.5920  -18.9010 C   0  0  0  0  0  0  0  0  0  0  0  0
   34.7120   83.4650  -19.1180 O   0  0  0  0  0  0  0  0  0  0  0  0
   36.7590   82.8690  -18.5350 O   0  0  0  0  0  0  0  0  0  0  0  0
  2  1  1  1
  3  2  1  0
  4  3  2  0
  5  2  1  0
  6  5  1  0
  7  6  1  0
  8  7  1  0
  9  8  1  0
 11 10  1  6
 12 11  1  0
 13 12  2  0
 14 11  1  0
 15 14  1  0
 14 16  1  6
 17 12  1  0
 18 17  1  0
 19 18  1  0
 20 19  2  0
 18 21  1  1
 22 21  1  0
 23 19  1  0
 24 23  1  0
 25 24  1  0
 26 25  2  0
 24 27  1  1
 28 27  1  0
 29 28  2  0
 30 28  1  0
 31 29  1  0
 32 30  2  0
 33 32  1  0
 33 31  2  0
 34 33  1  0
 36 35  1  1
 37 36  1  0
 38 37  2  0
 39 36  1  0
 40 39  1  0
 41 40  1  0
 42 41  2  0
 43 41  1  0
 44 37  1  0
 45 44  1  0
 46 45  1  0
 47 46  2  0
 45 48  1  1
 49 48  1  0
 51 50  1  6
 52 51  1  0
 53 52  2  0
 54 51  1  0
 55 54  1  0
 56 55  1  0
 57 56  1  0
 58 57  1  0
 59 52  1  0
 60 59  1  0
 61 60  1  0
 62 61  2  0
 60 63  1  1
 64 63  1  0
 65 64  2  0
 66 64  1  0
 67 61  1  0
 68 67  1  0
 69 68  1  0
 70 69  2  0
 68 71  1  6
 72 71  1  0
 73 72  2  0
 74 72  1  0
 75 69  1  0
 76 75  1  0
 76 77  1  6
 78 77  2  0
 79 76  1  0
 80 79  1  0
 81 80  1  0
 81 75  1  0
 82 77  1  0
 83 82  1  0
 84 83  1  0
 85 84  2  0
 83 86  1  6
 87 86  1  0
 88 87  1  0
 89 87  2  0
 90 88  2  0
 91 89  1  0
 91 90  1  0
 92 84  1  0
 93 92  1  0
 94 93  1  0
 95 94  2  0
 93 96  1  1
 97 96  1  0
 97 49  1  0
 99 98  1  1
100 99  1  0
101100  2  0
102 99  1  0
103102  1  0
104103  1  0
105104  2  0
106104  1  0
107100  1  0
108107  1  0
109108  1  0
110109  2  0
112111  1  1
113112  1  0
114113  2  0
115112  1  0
116115  1  0
117116  1  0
118117  1  0
119118  1  0
120119  1  0
121119  2  0
122113  1  0
123122  1  0
124123  1  0
125124  2  0
123126  1  1
127126  1  0
128127  1  0
129128  2  0
130128  1  0
M  END
$$$$
