
     RDKit          3D

 71 68  0  0  0  0  0  0  0  0999 V2000
  -18.8410    0.0330  -22.9700 N   0  0  0  0  0  0  0  0  0  0  0  0
  -17.9910   -0.3530  -24.0890 C   0  0  2  0  0  0  0  0  0  0  0  0
  -16.5260   -0.3940  -23.6670 C   0  0  0  0  0  0  0  0  0  0  0  0
  -15.8780    0.6480  -23.5740 O   0  0  0  0  0  0  0  0  0  0  0  0
  -18.1690    0.6270  -25.2470 C   0  0  0  0  0  0  0  0  0  0  0  0
  -18.6670   -0.0360  -26.5180 C   0  0  0  0  0  0  0  0  0  0  0  0
  -17.9990   -0.9020  -27.0830 O   0  0  0  0  0  0  0  0  0  0  0  0
  -19.8450    0.3860  -26.9820 N   0  0  0  0  0  0  0  0  0  0  0  0
  -13.9320   -1.3100  -25.2220 N   0  0  0  0  0  0  0  0  0  0  0  0
  -13.0020   -0.8720  -26.2590 C   0  0  2  0  0  0  0  0  0  0  0  0
  -12.8760    0.6540  -26.2530 C   0  0  0  0  0  0  0  0  0  0  0  0
  -11.9330    1.2130  -26.8090 O   0  0  0  0  0  0  0  0  0  0  0  0
  -13.4430   -1.3590  -27.6530 C   0  0  2  0  0  0  0  0  0  0  0  0
  -13.8990   -2.7120  -27.5660 O   0  0  0  0  0  0  0  0  0  0  0  0
  -12.2840   -1.2940  -28.6390 C   0  0  0  0  0  0  0  0  0  0  0  0
  -13.8280    1.3160  -25.6030 N   0  0  0  0  0  0  0  0  0  0  0  0
  -13.8660    2.7740  -25.5190 C   0  0  2  0  0  0  0  0  0  0  0  0
  -13.2370    3.2720  -24.2170 C   0  0  0  0  0  0  0  0  0  0  0  0
  -13.8330    3.1360  -23.1480 O   0  0  0  0  0  0  0  0  0  0  0  0
  -15.3190    3.2580  -25.6320 C   0  0  0  0  0  0  0  0  0  0  0  0
  -15.4340    4.7550  -25.8720 C   0  0  0  0  0  0  0  0  0  0  0  0
  -14.5480    5.5300  -25.5120 O   0  0  0  0  0  0  0  0  0  0  0  0
  -16.5420    5.1670  -26.4760 N   0  0  0  0  0  0  0  0  0  0  0  0
  -12.0450    3.8600  -24.3030 N   0  0  0  0  0  0  0  0  0  0  0  0
  -11.3220    4.2840  -23.1030 C   0  0  2  0  0  0  0  0  0  0  0  0
  -11.9780    5.4640  -22.3870 C   0  0  0  0  0  0  0  0  0  0  0  0
  -11.6450    5.7660  -21.2380 O   0  0  0  0  0  0  0  0  0  0  0  0
   -9.8650    4.6330  -23.4400 C   0  0  0  0  0  0  0  0  0  0  0  0
   -9.7340    5.8930  -24.2840 C   0  0  0  0  0  0  0  0  0  0  0  0
   -9.9870    7.0040  -23.8130 O   0  0  0  0  0  0  0  0  0  0  0  0
   -9.3080    5.7270  -25.5300 N   0  0  0  0  0  0  0  0  0  0  0  0
   -9.2980    2.9080  -18.0990 N   0  0  0  0  0  0  0  0  0  0  0  0
   -8.2330    2.2100  -18.8050 C   0  0  2  0  0  0  0  0  0  0  0  0
   -7.4590    3.1590  -19.7190 C   0  0  0  0  0  0  0  0  0  0  0  0
   -8.0490    4.0180  -20.3750 O   0  0  0  0  0  0  0  0  0  0  0  0
   -8.8130    1.0480  -19.6140 C   0  0  0  0  0  0  0  0  0  0  0  0
   -7.8100    0.3370  -20.5040 C   0  0  0  0  0  0  0  0  0  0  0  0
   -8.4910   -0.7090  -21.3660 C   0  0  0  0  0  0  0  0  0  0  0  0
   -9.4120   -0.1150  -22.3320 N   0  0  0  0  0  0  0  0  0  0  0  0
   -9.0470    0.3440  -23.5250 C   0  0  0  0  0  0  0  0  0  0  0  0
   -7.7770    0.2810  -23.9020 N   0  0  0  0  0  0  0  0  0  0  0  0
   -9.9510    0.8660  -24.3430 N   0  0  0  0  0  0  0  0  0  0  0  0
   -6.1370    3.0050  -19.7480 N   0  0  0  0  0  0  0  0  0  0  0  0
   -5.2860    3.7780  -20.6490 C   0  0  2  0  0  0  0  0  0  0  0  0
   -5.5210    3.3880  -22.1030 C   0  0  0  0  0  0  0  0  0  0  0  0
   -5.6460    2.2050  -22.4220 O   0  0  0  0  0  0  0  0  0  0  0  0
   -3.8080    3.5810  -20.3020 C   0  0  0  0  0  0  0  0  0  0  0  0
   -3.3670    4.4120  -19.1130 C   0  0  0  0  0  0  0  0  0  0  0  0
   -4.2370    4.8720  -18.3470 O   0  0  0  0  0  0  0  0  0  0  0  0
   -2.1440    4.5990  -18.9450 O   0  0  0  0  0  0  0  0  0  0  0  0
   -5.5710    4.3860  -22.9800 N   0  0  0  0  0  0  0  0  0  0  0  0
   -5.6760    4.1460  -24.4070 C   0  0  0  0  0  0  0  0  0  0  0  0
   -4.4580    4.6740  -25.1370 C   0  0  0  0  0  0  0  0  0  0  0  0
   -3.4220    4.9240  -24.5200 O   0  0  0  0  0  0  0  0  0  0  0  0
   -4.5770    4.8460  -26.4510 N   0  0  0  0  0  0  0  0  0  0  0  0
   -3.4950    5.3940  -27.2510 C   0  0  0  0  0  0  0  0  0  0  0  0
   -3.1290    4.5120  -28.4280 C   0  0  0  0  0  0  0  0  0  0  0  0
   -3.3490    3.3020  -28.3940 O   0  0  0  0  0  0  0  0  0  0  0  0
   -2.5700    5.1180  -29.4740 N   0  0  0  0  0  0  0  0  0  0  0  0
   -2.1180    4.3750  -30.6460 C   0  0  2  0  0  0  0  0  0  0  0  0
   -0.8160    3.6360  -30.3520 C   0  0  0  0  0  0  0  0  0  0  0  0
    0.2320    3.9520  -30.9150 O   0  0  0  0  0  0  0  0  0  0  0  0
   -1.9410    5.3110  -31.8390 C   0  0  0  0  0  0  0  0  0  0  0  0
   -0.8910    2.6500  -29.4660 N   0  0  0  0  0  0  0  0  0  0  0  0
    0.2810    1.8860  -29.0650 C   0  0  2  0  0  0  0  0  0  0  0  0
    0.1670    0.4160  -29.4470 C   0  0  0  0  0  0  0  0  0  0  0  0
   -0.8470   -0.0200  -29.9930 O   0  0  0  0  0  0  0  0  0  0  0  0
    0.5040    2.0150  -27.5580 C   0  0  0  0  0  0  0  0  0  0  0  0
   -0.7410    1.6870  -26.7540 C   0  0  0  0  0  0  0  0  0  0  0  0
   -1.4970    2.5780  -26.3670 O   0  0  0  0  0  0  0  0  0  0  0  0
   -0.9610    0.4020  -26.5000 N   0  0  0  0  0  0  0  0  0  0  0  0
  2  1  1  1
  3  2  1  0
  4  3  2  0
  5  2  1  0
  6  5  1  0
  7  6  2  0
  8  6  1  0
 10  9  1  1
 11 10  1  0
 12 11  2  0
 13 10  1  0
 14 13  1  0
 13 15  1  6
 16 11  1  0
 17 16  1  0
 18 17  1  0
 19 18  2  0
 17 20  1  1
 21 20  1  0
 22 21  2  0
 23 21  1  0
 24 18  1  0
 25 24  1  0
 26 25  1  0
 27 26  2  0
 25 28  1  6
 29 28  1  0
 30 29  2  0
 31 29  1  0
 33 32  1  6
 34 33  1  0
 35 34  2  0
 36 33  1  0
 37 36  1  0
 38 37  1  0
 39 38  1  0
 40 39  1  0
 41 40  1  0
 42 40  2  0
 43 34  1  0
 44 43  1  0
 45 44  1  0
 46 45  2  0
 44 47  1  1
 48 47  1  0
 49 48  2  0
 50 48  1  0
 51 45  1  0
 52 51  1  0
 53 52  1  0
 54 53  2  0
 55 53  1  0
 56 55  1  0
 57 56  1  0
 58 57  2  0
 59 57  1  0
 60 59  1  0
 61 60  1  0
 62 61  2  0
 60 63  1  6
 64 61  1  0
 65 64  1  0
 66 65  1  0
 67 66  2  0
 65 68  1  1
 69 68  1  0
 70 69  2  0
 71 69  1  0
M  END
$$$$
