
     RDKit          3D

192187  0  0  0  0  0  0  0  0999 V2000
   29.2120  -11.4480   -8.3110 N   0  0  0  0  0  0  0  0  0  0  0  0
   28.1700  -12.4720   -8.3180 C   0  0  2  0  0  0  0  0  0  0  0  0
   28.7260  -13.8320   -7.8940 C   0  0  0  0  0  0  0  0  0  0  0  0
   28.0910  -14.5520   -7.1270 O   0  0  0  0  0  0  0  0  0  0  0  0
   27.5260  -12.5690   -9.7070 C   0  0  0  0  0  0  0  0  0  0  0  0
   26.4960  -13.6810   -9.8660 C   0  0  0  0  0  0  0  0  0  0  0  0
   25.1250  -13.2990   -9.3380 C   0  0  0  0  0  0  0  0  0  0  0  0
   24.9720  -12.3030   -8.6330 O   0  0  0  0  0  0  0  0  0  0  0  0
   24.1180  -14.0910   -9.6860 N   0  0  0  0  0  0  0  0  0  0  0  0
   14.8050   -8.6940   -4.3840 N   0  0  0  0  0  0  0  0  0  0  0  0
   14.0610   -8.5000   -5.6210 C   0  0  2  0  0  0  0  0  0  0  0  0
   13.0750   -7.3480   -5.4600 C   0  0  0  0  0  0  0  0  0  0  0  0
   12.7270   -6.9790   -4.3370 O   0  0  0  0  0  0  0  0  0  0  0  0
   13.3020   -9.7720   -6.0390 C   0  0  2  0  0  0  0  0  0  0  0  0
   12.2790  -10.0610   -5.0780 O   0  0  0  0  0  0  0  0  0  0  0  0
   14.2580  -10.9570   -6.1360 C   0  0  0  0  0  0  0  0  0  0  0  0
   11.8260   -3.9690  -24.1810 N   0  0  0  0  0  0  0  0  0  0  0  0
   11.0380   -4.3580  -23.0140 C   0  0  2  0  0  0  0  0  0  0  0  0
   11.5820   -5.5930  -22.3020 C   0  0  0  0  0  0  0  0  0  0  0  0
   11.1240   -5.9390  -21.2140 O   0  0  0  0  0  0  0  0  0  0  0  0
    9.5780   -4.5970  -23.4090 C   0  0  0  0  0  0  0  0  0  0  0  0
    9.4130   -5.7590  -24.3660 C   0  0  0  0  0  0  0  0  0  0  0  0
    9.3800   -6.9190  -23.9540 O   0  0  0  0  0  0  0  0  0  0  0  0
    9.3000   -5.4540  -25.6530 N   0  0  0  0  0  0  0  0  0  0  0  0
   12.5570   -6.2530  -22.9150 N   0  0  0  0  0  0  0  0  0  0  0  0
   13.1870   -7.4150  -22.3000 C   0  0  2  0  0  0  0  0  0  0  0  0
   14.2890   -6.9880  -21.3350 C   0  0  0  0  0  0  0  0  0  0  0  0
   14.8010   -7.8010  -20.5650 O   0  0  0  0  0  0  0  0  0  0  0  0
   13.7450   -8.3460  -23.3670 C   0  0  0  0  0  0  0  0  0  0  0  0
   14.6450   -5.7070  -21.3770 N   0  0  0  0  0  0  0  0  0  0  0  0
   15.7100   -5.1810  -20.5300 C   0  0  2  0  0  0  0  0  0  0  0  0
   15.1690   -4.6160  -19.2200 C   0  0  0  0  0  0  0  0  0  0  0  0
   14.2120   -3.8410  -19.2110 O   0  0  0  0  0  0  0  0  0  0  0  0
   16.5040   -4.1080  -21.2730 C   0  0  0  0  0  0  0  0  0  0  0  0
   17.1900   -4.6070  -22.5360 C   0  0  0  0  0  0  0  0  0  0  0  0
   18.0950   -5.7960  -22.2450 C   0  0  0  0  0  0  0  0  0  0  0  0
   18.8800   -6.2050  -23.4810 C   0  0  0  0  0  0  0  0  0  0  0  0
   19.7920   -7.3540  -23.2190 N   0  0  0  0  0  0  0  0  0  0  0  0
   15.7950   -5.0130  -18.1170 N   0  0  0  0  0  0  0  0  0  0  0  0
   15.3860   -4.5740  -16.7890 C   0  0  2  0  0  0  0  0  0  0  0  0
   15.6620   -3.0850  -16.5900 C   0  0  0  0  0  0  0  0  0  0  0  0
   16.6790   -2.5650  -17.0500 O   0  0  0  0  0  0  0  0  0  0  0  0
   16.1110   -5.3860  -15.6910 C   0  0  2  0  0  0  0  0  0  0  0  0
   15.9210   -6.7870  -15.9270 O   0  0  0  0  0  0  0  0  0  0  0  0
   15.5800   -5.0340  -14.3080 C   0  0  0  0  0  0  0  0  0  0  0  0
    3.2720   -9.8580  -13.5600 N   0  0  0  0  0  0  0  0  0  0  0  0
    2.3520  -10.6400  -14.3840 C   0  0  2  0  0  0  0  0  0  0  0  0
    2.4030  -12.1300  -14.0600 C   0  0  0  0  0  0  0  0  0  0  0  0
    1.4900  -12.8790  -14.4090 O   0  0  0  0  0  0  0  0  0  0  0  0
    2.6530  -10.4290  -15.8700 C   0  0  0  0  0  0  0  0  0  0  0  0
    2.3870   -9.0960  -16.2640 O   0  0  0  0  0  0  0  0  0  0  0  0
    3.4750  -12.5570  -13.4020 N   0  0  0  0  0  0  0  0  0  0  0  0
    3.6450  -13.9570  -13.0630 C   0  0  0  0  0  0  0  0  0  0  0  0
    5.0660  -14.2830  -12.6520 C   0  0  0  0  0  0  0  0  0  0  0  0
    5.9250  -13.4030  -12.5960 O   0  0  0  0  0  0  0  0  0  0  0  0
    5.3130  -15.5560  -12.3610 N   0  0  0  0  0  0  0  0  0  0  0  0
    6.6260  -16.0060  -11.9420 C   0  0  0  0  0  0  0  0  0  0  0  0
    6.5940  -16.6380  -10.5650 C   0  0  0  0  0  0  0  0  0  0  0  0
    5.5320  -16.7600   -9.9540 O   0  0  0  0  0  0  0  0  0  0  0  0
    7.7610  -17.0440  -10.0760 N   0  0  0  0  0  0  0  0  0  0  0  0
    7.8730  -17.6090   -8.7370 C   0  0  2  0  0  0  0  0  0  0  0  0
    7.6810  -16.5210   -7.6840 C   0  0  0  0  0  0  0  0  0  0  0  0
    7.7190  -15.3320   -8.0010 O   0  0  0  0  0  0  0  0  0  0  0  0
    9.2270  -18.2960   -8.5560 C   0  0  0  0  0  0  0  0  0  0  0  0
    9.4470  -19.4220   -9.5500 C   0  0  0  0  0  0  0  0  0  0  0  0
    8.4480  -20.0170  -10.0090 O   0  0  0  0  0  0  0  0  0  0  0  0
   10.6180  -19.7130   -9.8710 O   0  0  0  0  0  0  0  0  0  0  0  0
    7.4760  -16.9290   -6.4340 N   0  0  0  0  0  0  0  0  0  0  0  0
    7.2320  -15.9820   -5.3480 C   0  0  2  0  0  0  0  0  0  0  0  0
    8.4190  -15.0520   -5.1130 C   0  0  0  0  0  0  0  0  0  0  0  0
    8.2580  -13.9480   -4.5910 O   0  0  0  0  0  0  0  0  0  0  0  0
    6.8960  -16.7230   -4.0520 C   0  0  0  0  0  0  0  0  0  0  0  0
    5.5230  -17.3920   -3.9840 C   0  0  0  0  0  0  0  0  0  0  0  0
    5.2850  -17.9810   -2.6020 C   0  0  0  0  0  0  0  0  0  0  0  0
    4.4270  -16.4030   -4.3460 C   0  0  0  0  0  0  0  0  0  0  0  0
    9.6060  -15.4990   -5.5050 N   0  0  0  0  0  0  0  0  0  0  0  0
   10.8220  -14.7190   -5.3120 C   0  0  2  0  0  0  0  0  0  0  0  0
   10.7910  -13.3960   -6.0760 C   0  0  0  0  0  0  0  0  0  0  0  0
   11.4520  -12.4370   -5.6840 O   0  0  0  0  0  0  0  0  0  0  0  0
   12.0500  -15.5340   -5.7310 C   0  0  0  0  0  0  0  0  0  0  0  0
   12.4530  -16.6310   -4.7510 C   0  0  0  0  0  0  0  0  0  0  0  0
   11.5270  -17.8340   -4.7860 C   0  0  0  0  0  0  0  0  0  0  0  0
   10.6820  -17.9130   -5.7020 O   0  0  0  0  0  0  0  0  0  0  0  0
   11.6470  -18.7030   -3.8960 O   0  0  0  0  0  0  0  0  0  0  0  0
   10.0260  -13.3420   -7.1630 N   0  0  0  0  0  0  0  0  0  0  0  0
    9.9460  -12.1220   -7.9620 C   0  0  2  0  0  0  0  0  0  0  0  0
    8.5660  -11.4670   -7.9120 C   0  0  0  0  0  0  0  0  0  0  0  0
    8.4480  -10.2530   -8.0750 O   0  0  0  0  0  0  0  0  0  0  0  0
   10.3160  -12.3870   -9.4370 C   0  0  2  0  0  0  0  0  0  0  0  0
    9.4060  -13.4580  -10.0390 C   0  0  0  0  0  0  0  0  0  0  0  0
   11.7750  -12.8010   -9.5510 C   0  0  0  0  0  0  0  0  0  0  0  0
    9.6600  -13.7120  -11.5020 C   0  0  0  0  0  0  0  0  0  0  0  0
   11.3040  -10.2850   -2.1910 N   0  0  0  0  0  0  0  0  0  0  0  0
   12.0810  -11.3780   -1.6220 C   0  0  2  0  0  0  0  0  0  0  0  0
   13.4120  -10.8750   -1.0800 C   0  0  0  0  0  0  0  0  0  0  0  0
   14.1680  -10.2120   -1.7870 O   0  0  0  0  0  0  0  0  0  0  0  0
   12.3080  -12.4670   -2.6740 C   0  0  0  0  0  0  0  0  0  0  0  0
   13.0680  -13.6540   -2.1700 C   0  0  0  0  0  0  0  0  0  0  0  0
   12.7000  -14.3500   -1.0380 N   0  0  0  0  0  0  0  0  0  0  0  0
   14.1690  -14.2770   -2.6530 C   0  0  0  0  0  0  0  0  0  0  0  0
   13.5460  -15.3450   -0.8420 C   0  0  0  0  0  0  0  0  0  0  0  0
   14.4460  -15.3240   -1.8080 N   0  0  0  0  0  0  0  0  0  0  0  0
   13.1120  -20.9810   -3.8300 N   0  0  0  0  0  0  0  0  0  0  0  0
   13.8110  -21.1370   -5.1010 C   0  0  2  0  0  0  0  0  0  0  0  0
   15.1160  -20.3520   -5.0620 C   0  0  0  0  0  0  0  0  0  0  0  0
   15.1100  -19.1380   -4.8560 O   0  0  0  0  0  0  0  0  0  0  0  0
   12.9410  -20.6700   -6.2710 C   0  0  0  0  0  0  0  0  0  0  0  0
   11.7030  -21.5250   -6.4590 C   0  0  0  0  0  0  0  0  0  0  0  0
   11.7760  -22.7540   -6.4570 O   0  0  0  0  0  0  0  0  0  0  0  0
   10.5540  -20.8770   -6.6180 N   0  0  0  0  0  0  0  0  0  0  0  0
   16.2330  -21.0460   -5.2500 N   0  0  0  0  0  0  0  0  0  0  0  0
   17.5440  -20.4120   -5.1600 C   0  0  2  0  0  0  0  0  0  0  0  0
   17.8150  -19.4680   -6.3290 C   0  0  0  0  0  0  0  0  0  0  0  0
   17.6120  -19.8220   -7.4910 O   0  0  0  0  0  0  0  0  0  0  0  0
   18.6390  -21.4750   -5.0810 C   0  0  0  0  0  0  0  0  0  0  0  0
   18.7860  -22.1020   -3.7060 C   0  0  0  0  0  0  0  0  0  0  0  0
   19.9650  -23.4640   -3.6870 S   0  0  0  0  0  0  0  0  0  0  0  0
   19.0080  -24.7440   -4.4930 C   0  0  0  0  0  0  0  0  0  0  0  0
   18.2790  -18.2630   -6.0070 N   0  0  0  0  0  0  0  0  0  0  0  0
   18.6050  -17.2640   -7.0190 C   0  0  2  0  0  0  0  0  0  0  0  0
   19.8910  -17.6200   -7.7530 C   0  0  0  0  0  0  0  0  0  0  0  0
   20.2140  -17.0240   -8.7810 O   0  0  0  0  0  0  0  0  0  0  0  0
   18.7300  -15.8750   -6.3860 C   0  0  0  0  0  0  0  0  0  0  0  0
   19.7610  -15.7960   -5.3000 C   0  0  0  0  0  0  0  0  0  0  0  0
   19.5550  -15.9630   -3.9610 C   0  0  0  0  0  0  0  0  0  0  0  0
   21.1620  -15.5290   -5.4590 C   0  0  0  0  0  0  0  0  0  0  0  0
   20.7380  -15.8160   -3.2770 N   0  0  0  0  0  0  0  0  0  0  0  0
   21.7390  -15.5500   -4.1740 C   0  0  0  0  0  0  0  0  0  0  0  0
   21.9810  -15.2760   -6.5630 C   0  0  0  0  0  0  0  0  0  0  0  0
   23.0990  -15.3280   -3.9630 C   0  0  0  0  0  0  0  0  0  0  0  0
   23.3300  -15.0550   -6.3520 C   0  0  0  0  0  0  0  0  0  0  0  0
   23.8750  -15.0820   -5.0620 C   0  0  0  0  0  0  0  0  0  0  0  0
   20.6250  -18.5900   -7.2170 N   0  0  0  0  0  0  0  0  0  0  0  0
   21.8510  -19.0610   -7.8480 C   0  0  2  0  0  0  0  0  0  0  0  0
   21.5290  -19.9360   -9.0570 C   0  0  0  0  0  0  0  0  0  0  0  0
   22.3990  -20.2140   -9.8820 O   0  0  0  0  0  0  0  0  0  0  0  0
   22.7140  -19.8360   -6.8480 C   0  0  0  0  0  0  0  0  0  0  0  0
   23.0940  -19.0560   -5.5940 C   0  0  0  0  0  0  0  0  0  0  0  0
   22.0460  -19.1490   -4.4990 C   0  0  0  0  0  0  0  0  0  0  0  0
   20.8460  -19.1780   -4.7710 O   0  0  0  0  0  0  0  0  0  0  0  0
   22.4980  -19.2060   -3.2520 N   0  0  0  0  0  0  0  0  0  0  0  0
   20.2750  -20.3690   -9.1500 N   0  0  0  0  0  0  0  0  0  0  0  0
   19.8140  -21.1550  -10.2800 C   0  0  0  0  0  0  0  0  0  0  0  0
   19.9610  -22.6480  -10.0730 C   0  0  0  0  0  0  0  0  0  0  0  0
   19.6870  -23.4380  -10.9760 O   0  0  0  0  0  0  0  0  0  0  0  0
   20.3910  -23.0350   -8.8770 N   0  0  0  0  0  0  0  0  0  0  0  0
   20.6250  -24.4390   -8.5610 C   0  0  2  0  0  0  0  0  0  0  0  0
   19.3190  -25.2320   -8.5170 C   0  0  0  0  0  0  0  0  0  0  0  0
   19.2590  -26.3730   -8.9730 O   0  0  0  0  0  0  0  0  0  0  0  0
   21.3580  -24.5910   -7.2130 C   0  0  2  0  0  0  0  0  0  0  0  0
   22.4820  -23.7020   -7.1720 O   0  0  0  0  0  0  0  0  0  0  0  0
   21.8360  -26.0240   -7.0180 C   0  0  0  0  0  0  0  0  0  0  0  0
   10.0560   -3.6550  -14.8100 N   0  0  0  0  0  0  0  0  0  0  0  0
    9.9710   -4.1020  -16.1950 C   0  0  2  0  0  0  0  0  0  0  0  0
    8.8180   -3.3710  -16.8720 C   0  0  0  0  0  0  0  0  0  0  0  0
    7.7700   -3.1560  -16.2640 O   0  0  0  0  0  0  0  0  0  0  0  0
    9.7590   -5.6260  -16.3070 C   0  0  2  0  0  0  0  0  0  0  0  0
    8.5650   -6.0000  -15.6070 O   0  0  0  0  0  0  0  0  0  0  0  0
   10.9440   -6.3770  -15.7210 C   0  0  0  0  0  0  0  0  0  0  0  0
   13.1690   -7.9340  -10.9770 N   0  0  0  0  0  0  0  0  0  0  0  0
   14.1630   -8.6040  -10.1610 C   0  0  0  0  0  0  0  0  0  0  0  0
   14.5920   -9.9220  -10.7710 C   0  0  0  0  0  0  0  0  0  0  0  0
   14.6270  -10.0640  -11.9920 O   0  0  0  0  0  0  0  0  0  0  0  0
   14.9230  -10.8880   -9.9210 N   0  0  0  0  0  0  0  0  0  0  0  0
   15.3380  -12.1990  -10.3850 C   0  0  0  0  0  0  0  0  0  0  0  0
   16.8260  -12.2770  -10.6600 C   0  0  0  0  0  0  0  0  0  0  0  0
   17.5530  -13.0030   -9.9850 O   0  0  0  0  0  0  0  0  0  0  0  0
   17.2820  -11.5300  -11.6590 N   0  0  0  0  0  0  0  0  0  0  0  0
   18.7000  -11.4850  -11.9870 C   0  0  2  0  0  0  0  0  0  0  0  0
   19.4490  -10.6330  -10.9700 C   0  0  0  0  0  0  0  0  0  0  0  0
   19.3710   -9.4060  -11.0010 O   0  0  0  0  0  0  0  0  0  0  0  0
   18.9110  -10.9410  -13.4000 C   0  0  0  0  0  0  0  0  0  0  0  0
   20.3560  -11.0250  -13.8470 C   0  0  0  0  0  0  0  0  0  0  0  0
   21.1560  -11.7610  -13.2700 O   0  0  0  0  0  0  0  0  0  0  0  0
   20.6970  -10.2730  -14.8860 N   0  0  0  0  0  0  0  0  0  0  0  0
   20.1690  -11.2890  -10.0670 N   0  0  0  0  0  0  0  0  0  0  0  0
   20.8250  -10.6040   -8.9580 C   0  0  2  0  0  0  0  0  0  0  0  0
   22.0470   -9.8220   -9.4380 C   0  0  0  0  0  0  0  0  0  0  0  0
   22.5500   -8.9400   -8.7390 O   0  0  0  0  0  0  0  0  0  0  0  0
   21.2270  -11.6050   -7.8530 C   0  0  2  0  0  0  0  0  0  0  0  0
   20.0520  -12.5280   -7.5370 C   0  0  0  0  0  0  0  0  0  0  0  0
   21.6480  -10.8840   -6.5830 C   0  0  0  0  0  0  0  0  0  0  0  0
   18.8350  -11.7950   -7.0120 C   0  0  0  0  0  0  0  0  0  0  0  0
   22.5120  -10.1340  -10.6440 N   0  0  0  0  0  0  0  0  0  0  0  0
   23.5930   -9.3690  -11.2530 C   0  0  2  0  0  0  0  0  0  0  0  0
   23.1860   -7.9060  -11.4110 C   0  0  0  0  0  0  0  0  0  0  0  0
   24.0300   -7.0130  -11.3830 O   0  0  0  0  0  0  0  0  0  0  0  0
   23.9850   -9.9610  -12.6080 C   0  0  0  0  0  0  0  0  0  0  0  0
   24.6760  -11.3120  -12.5240 C   0  0  0  0  0  0  0  0  0  0  0  0
   25.0830  -11.7990  -13.9040 C   0  0  0  0  0  0  0  0  0  0  0  0
   25.8030  -13.1370  -13.8330 C   0  0  0  0  0  0  0  0  0  0  0  0
   26.2180  -13.6150  -15.1840 N   0  0  0  0  0  0  0  0  0  0  0  0
  2  1  1  6
  3  2  1  0
  4  3  2  0
  5  2  1  0
  6  5  1  0
  7  6  1  0
  8  7  2  0
  9  7  1  0
 11 10  1  1
 12 11  1  0
 13 12  2  0
 14 11  1  0
 15 14  1  0
 14 16  1  1
 18 17  1  6
 19 18  1  0
 20 19  2  0
 21 18  1  0
 22 21  1  0
 23 22  2  0
 24 22  1  0
 25 19  1  0
 26 25  1  0
 27 26  1  0
 28 27  2  0
 26 29  1  6
 30 27  1  0
 31 30  1  0
 32 31  1  0
 33 32  2  0
 31 34  1  6
 35 34  1  0
 36 35  1  0
 37 36  1  0
 38 37  1  0
 39 32  1  0
 40 39  1  6
 41 40  1  0
 42 41  2  0
 43 40  1  0
 44 43  1  0
 43 45  1  1
 47 46  1  1
 48 47  1  0
 49 48  2  0
 50 47  1  0
 51 50  1  0
 52 48  1  0
 53 52  1  0
 54 53  1  0
 55 54  2  0
 56 54  1  0
 57 56  1  0
 58 57  1  0
 59 58  2  0
 60 58  1  0
 61 60  1  0
 62 61  1  0
 63 62  2  0
 61 64  1  6
 65 64  1  0
 66 65  2  0
 67 65  1  0
 68 62  1  0
 69 68  1  0
 70 69  1  0
 71 70  2  0
 69 72  1  1
 73 72  1  0
 74 73  1  0
 75 73  1  0
 76 70  1  0
 77 76  1  0
 78 77  1  0
 79 78  2  0
 77 80  1  6
 81 80  1  0
 82 81  1  0
 83 82  2  0
 84 82  1  0
 85 78  1  0
 86 85  1  1
 87 86  1  0
 88 87  2  0
 89 86  1  0
 90 89  1  0
 89 91  1  1
 92 90  1  0
 94 93  1  6
 95 94  1  0
 96 95  2  0
 97 94  1  0
 98 97  1  0
 99 98  1  0
100 98  2  0
101 99  2  0
102101  1  0
102100  1  0
104103  1  1
105104  1  0
106105  2  0
107104  1  0
108107  1  0
109108  2  0
110108  1  0
111105  1  0
112111  1  0
113112  1  0
114113  2  0
112115  1  6
116115  1  0
117116  1  0
118117  1  0
119113  1  0
120119  1  0
121120  1  0
122121  2  0
120123  1  1
124123  1  0
125124  2  0
126124  1  0
127125  1  0
128126  2  0
128127  1  0
129126  1  0
130128  1  0
131129  2  0
132131  1  0
132130  2  0
133121  1  0
134133  1  0
135134  1  0
136135  2  0
134137  1  1
138137  1  0
139138  1  0
140139  2  0
141139  1  0
142135  1  0
143142  1  0
144143  1  0
145144  2  0
146144  1  0
147146  1  1
148147  1  0
149148  2  0
150147  1  0
151150  1  0
150152  1  6
154153  1  1
155154  1  0
156155  2  0
157154  1  0
158157  1  0
157159  1  1
161160  1  0
162161  1  0
163162  2  0
164162  1  0
165164  1  0
166165  1  0
167166  2  0
168166  1  0
169168  1  0
170169  1  0
171170  2  0
169172  1  6
173172  1  0
174173  2  0
175173  1  0
176170  1  0
177176  1  6
178177  1  0
179178  2  0
180177  1  0
181180  1  0
180182  1  1
183181  1  0
184178  1  0
185184  1  0
186185  1  0
187186  2  0
185188  1  6
189188  1  0
190189  1  0
191190  1  0
192191  1  0
M  END
$$$$
