
     RDKit          3D

 71 68  0  0  0  0  0  0  0  0999 V2000
   18.5210   -0.2940  -22.6150 N   0  0  0  0  0  0  0  0  0  0  0  0
   17.6920    0.1130  -23.7410 C   0  0  2  0  0  0  0  0  0  0  0  0
   16.2220    0.1920  -23.3350 C   0  0  0  0  0  0  0  0  0  0  0  0
   15.5540   -0.8360  -23.2200 O   0  0  0  0  0  0  0  0  0  0  0  0
   17.8540   -0.8670  -24.8970 C   0  0  0  0  0  0  0  0  0  0  0  0
   18.4330   -0.2270  -26.1410 C   0  0  0  0  0  0  0  0  0  0  0  0
   17.7520    0.5210  -26.8430 O   0  0  0  0  0  0  0  0  0  0  0  0
   19.6950   -0.5280  -26.4280 N   0  0  0  0  0  0  0  0  0  0  0  0
   13.6540    1.1400  -24.9510 N   0  0  0  0  0  0  0  0  0  0  0  0
   12.7590    0.6760  -26.0040 C   0  0  2  0  0  0  0  0  0  0  0  0
   12.7060   -0.8500  -26.0680 C   0  0  0  0  0  0  0  0  0  0  0  0
   11.8130   -1.4240  -26.6910 O   0  0  0  0  0  0  0  0  0  0  0  0
   13.1830    1.2290  -27.3730 C   0  0  2  0  0  0  0  0  0  0  0  0
   14.5680    0.9400  -27.5960 O   0  0  0  0  0  0  0  0  0  0  0  0
   12.9780    2.7330  -27.4210 C   0  0  0  0  0  0  0  0  0  0  0  0
   13.6690   -1.4970  -25.4200 N   0  0  0  0  0  0  0  0  0  0  0  0
   13.7100   -2.9520  -25.3370 C   0  0  2  0  0  0  0  0  0  0  0  0
   13.0370   -3.4320  -24.0540 C   0  0  0  0  0  0  0  0  0  0  0  0
   13.6090   -3.3250  -22.9700 O   0  0  0  0  0  0  0  0  0  0  0  0
   15.1590   -3.4450  -25.4010 C   0  0  0  0  0  0  0  0  0  0  0  0
   15.2660   -4.9470  -25.6190 C   0  0  0  0  0  0  0  0  0  0  0  0
   14.3740   -5.7140  -25.2530 O   0  0  0  0  0  0  0  0  0  0  0  0
   16.3740   -5.3730  -26.2160 N   0  0  0  0  0  0  0  0  0  0  0  0
   11.8260   -3.9690  -24.1810 N   0  0  0  0  0  0  0  0  0  0  0  0
   11.0380   -4.3580  -23.0140 C   0  0  2  0  0  0  0  0  0  0  0  0
   11.5820   -5.5930  -22.3020 C   0  0  0  0  0  0  0  0  0  0  0  0
   11.1240   -5.9390  -21.2140 O   0  0  0  0  0  0  0  0  0  0  0  0
    9.5780   -4.5970  -23.4090 C   0  0  0  0  0  0  0  0  0  0  0  0
    9.4130   -5.7590  -24.3660 C   0  0  0  0  0  0  0  0  0  0  0  0
    9.3800   -6.9190  -23.9540 O   0  0  0  0  0  0  0  0  0  0  0  0
    9.3000   -5.4540  -25.6530 N   0  0  0  0  0  0  0  0  0  0  0  0
    9.0130   -2.9830  -18.1260 N   0  0  0  0  0  0  0  0  0  0  0  0
    7.9890   -2.2430  -18.8530 C   0  0  2  0  0  0  0  0  0  0  0  0
    7.2200   -3.1320  -19.8220 C   0  0  0  0  0  0  0  0  0  0  0  0
    7.8130   -3.9030  -20.5770 O   0  0  0  0  0  0  0  0  0  0  0  0
    8.6130   -1.0750  -19.6130 C   0  0  0  0  0  0  0  0  0  0  0  0
    7.6150   -0.2740  -20.4230 C   0  0  0  0  0  0  0  0  0  0  0  0
    8.3230    0.6910  -21.3460 C   0  0  0  0  0  0  0  0  0  0  0  0
    9.2350    0.0040  -22.2540 N   0  0  0  0  0  0  0  0  0  0  0  0
    8.8740   -0.5120  -23.4230 C   0  0  0  0  0  0  0  0  0  0  0  0
    7.6150   -0.4230  -23.8290 N   0  0  0  0  0  0  0  0  0  0  0  0
    9.7710   -1.1190  -24.1870 N   0  0  0  0  0  0  0  0  0  0  0  0
    5.8950   -3.0180  -19.7950 N   0  0  0  0  0  0  0  0  0  0  0  0
    5.0430   -3.7650  -20.7130 C   0  0  2  0  0  0  0  0  0  0  0  0
    5.2780   -3.3340  -22.1550 C   0  0  0  0  0  0  0  0  0  0  0  0
    5.5110   -2.1580  -22.4330 O   0  0  0  0  0  0  0  0  0  0  0  0
    3.5680   -3.5840  -20.3490 C   0  0  0  0  0  0  0  0  0  0  0  0
    3.1570   -4.4150  -19.1510 C   0  0  0  0  0  0  0  0  0  0  0  0
    4.0480   -4.8320  -18.3830 O   0  0  0  0  0  0  0  0  0  0  0  0
    1.9430   -4.6490  -18.9780 O   0  0  0  0  0  0  0  0  0  0  0  0
    5.2210   -4.2990  -23.0660 N   0  0  0  0  0  0  0  0  0  0  0  0
    5.3730   -4.0240  -24.4810 C   0  0  0  0  0  0  0  0  0  0  0  0
    4.2030   -4.5780  -25.2660 C   0  0  0  0  0  0  0  0  0  0  0  0
    3.1000   -4.7110  -24.7360 O   0  0  0  0  0  0  0  0  0  0  0  0
    4.4450   -4.9060  -26.5310 N   0  0  0  0  0  0  0  0  0  0  0  0
    3.4080   -5.4560  -27.3840 C   0  0  0  0  0  0  0  0  0  0  0  0
    2.9500   -4.4770  -28.4460 C   0  0  0  0  0  0  0  0  0  0  0  0
    3.1540   -3.2700  -28.3170 O   0  0  0  0  0  0  0  0  0  0  0  0
    2.3300   -5.0000  -29.4990 N   0  0  0  0  0  0  0  0  0  0  0  0
    1.8390   -4.1700  -30.5930 C   0  0  2  0  0  0  0  0  0  0  0  0
    0.5580   -3.4440  -30.1960 C   0  0  0  0  0  0  0  0  0  0  0  0
   -0.5460   -3.8930  -30.5080 O   0  0  0  0  0  0  0  0  0  0  0  0
    1.6090   -5.0140  -31.8390 C   0  0  0  0  0  0  0  0  0  0  0  0
    0.7120   -2.3210  -29.5050 N   0  0  0  0  0  0  0  0  0  0  0  0
   -0.4300   -1.5370  -29.0560 C   0  0  2  0  0  0  0  0  0  0  0  0
   -0.3670   -0.0960  -29.5470 C   0  0  0  0  0  0  0  0  0  0  0  0
    0.5050    0.2680  -30.3360 O   0  0  0  0  0  0  0  0  0  0  0  0
   -0.5220   -1.5600  -27.5300 C   0  0  0  0  0  0  0  0  0  0  0  0
    0.6860   -0.9280  -26.8640 C   0  0  0  0  0  0  0  0  0  0  0  0
    1.6660   -1.6070  -26.5560 O   0  0  0  0  0  0  0  0  0  0  0  0
    0.6220    0.3800  -26.6380 N   0  0  0  0  0  0  0  0  0  0  0  0
  2  1  1  1
  3  2  1  0
  4  3  2  0
  5  2  1  0
  6  5  1  0
  7  6  2  0
  8  6  1  0
 10  9  1  1
 11 10  1  0
 12 11  2  0
 13 10  1  0
 14 13  1  0
 13 15  1  1
 16 11  1  0
 17 16  1  0
 18 17  1  0
 19 18  2  0
 17 20  1  1
 21 20  1  0
 22 21  2  0
 23 21  1  0
 24 18  1  0
 25 24  1  0
 26 25  1  0
 27 26  2  0
 25 28  1  6
 29 28  1  0
 30 29  2  0
 31 29  1  0
 33 32  1  6
 34 33  1  0
 35 34  2  0
 36 33  1  0
 37 36  1  0
 38 37  1  0
 39 38  1  0
 40 39  1  0
 41 40  1  0
 42 40  2  0
 43 34  1  0
 44 43  1  0
 45 44  1  0
 46 45  2  0
 44 47  1  1
 48 47  1  0
 49 48  2  0
 50 48  1  0
 51 45  1  0
 52 51  1  0
 53 52  1  0
 54 53  2  0
 55 53  1  0
 56 55  1  0
 57 56  1  0
 58 57  2  0
 59 57  1  0
 60 59  1  0
 61 60  1  0
 62 61  2  0
 60 63  1  6
 64 61  1  0
 65 64  1  0
 66 65  1  0
 67 66  2  0
 65 68  1  1
 69 68  1  0
 70 69  2  0
 71 69  1  0
M  END
$$$$
