
     RDKit          3D

 71 68  0  0  0  0  0  0  0  0999 V2000
   19.4210   -0.1450  -22.7010 N   0  0  0  0  0  0  0  0  0  0  0  0
   18.5800    0.3270  -23.7920 C   0  0  2  0  0  0  0  0  0  0  0  0
   17.1440    0.4160  -23.3160 C   0  0  0  0  0  0  0  0  0  0  0  0
   16.5310   -0.6000  -23.0050 O   0  0  0  0  0  0  0  0  0  0  0  0
   18.6640   -0.6060  -24.9940 C   0  0  0  0  0  0  0  0  0  0  0  0
   19.0520    0.1120  -26.2740 C   0  0  0  0  0  0  0  0  0  0  0  0
   18.4080    1.0770  -26.6930 O   0  0  0  0  0  0  0  0  0  0  0  0
   20.1220   -0.3650  -26.9000 N   0  0  0  0  0  0  0  0  0  0  0  0
   14.5240    1.0920  -24.9150 N   0  0  0  0  0  0  0  0  0  0  0  0
   13.5490    0.6270  -25.8920 C   0  0  2  0  0  0  0  0  0  0  0  0
   13.4720   -0.8990  -25.9180 C   0  0  0  0  0  0  0  0  0  0  0  0
   12.5470   -1.4800  -26.4850 O   0  0  0  0  0  0  0  0  0  0  0  0
   13.8730    1.1590  -27.3020 C   0  0  2  0  0  0  0  0  0  0  0  0
   15.2540    0.9250  -27.5960 O   0  0  0  0  0  0  0  0  0  0  0  0
   13.6100    2.6490  -27.3690 C   0  0  0  0  0  0  0  0  0  0  0  0
   14.4460   -1.5440  -25.2910 N   0  0  0  0  0  0  0  0  0  0  0  0
   14.4690   -2.9930  -25.2140 C   0  0  2  0  0  0  0  0  0  0  0  0
   13.7860   -3.4550  -23.9270 C   0  0  0  0  0  0  0  0  0  0  0  0
   14.3480   -3.3350  -22.8420 O   0  0  0  0  0  0  0  0  0  0  0  0
   15.9150   -3.5060  -25.2960 C   0  0  0  0  0  0  0  0  0  0  0  0
   16.0000   -5.0140  -25.4940 C   0  0  0  0  0  0  0  0  0  0  0  0
   15.0640   -5.7450  -25.1860 O   0  0  0  0  0  0  0  0  0  0  0  0
   17.1340   -5.4830  -25.9960 N   0  0  0  0  0  0  0  0  0  0  0  0
   12.5740   -3.9890  -24.0490 N   0  0  0  0  0  0  0  0  0  0  0  0
   11.8040   -4.3910  -22.8750 C   0  0  2  0  0  0  0  0  0  0  0  0
   12.4060   -5.5920  -22.1520 C   0  0  0  0  0  0  0  0  0  0  0  0
   11.8900   -6.0350  -21.1320 O   0  0  0  0  0  0  0  0  0  0  0  0
   10.3410   -4.6810  -23.2550 C   0  0  0  0  0  0  0  0  0  0  0  0
   10.1850   -5.8590  -24.2090 C   0  0  0  0  0  0  0  0  0  0  0  0
   10.9360   -6.8280  -24.1570 O   0  0  0  0  0  0  0  0  0  0  0  0
    9.1900   -5.7780  -25.0800 N   0  0  0  0  0  0  0  0  0  0  0  0
    9.9460   -3.1320  -18.1570 N   0  0  0  0  0  0  0  0  0  0  0  0
    8.8630   -2.4290  -18.8110 C   0  0  2  0  0  0  0  0  0  0  0  0
    8.0600   -3.4040  -19.6600 C   0  0  0  0  0  0  0  0  0  0  0  0
    8.6250   -4.2440  -20.3660 O   0  0  0  0  0  0  0  0  0  0  0  0
    9.4270   -1.2930  -19.6650 C   0  0  0  0  0  0  0  0  0  0  0  0
    8.4570   -0.1770  -19.9600 C   0  0  0  0  0  0  0  0  0  0  0  0
    8.2170   -0.0240  -21.4500 C   0  0  0  0  0  0  0  0  0  0  0  0
    9.4460   -0.0630  -22.2350 N   0  0  0  0  0  0  0  0  0  0  0  0
    9.4910   -0.5010  -23.4880 C   0  0  0  0  0  0  0  0  0  0  0  0
    8.3800   -0.9280  -24.0630 N   0  0  0  0  0  0  0  0  0  0  0  0
   10.6320   -0.5220  -24.1630 N   0  0  0  0  0  0  0  0  0  0  0  0
    6.7390   -3.3010  -19.5730 N   0  0  0  0  0  0  0  0  0  0  0  0
    5.8500   -4.1120  -20.3930 C   0  0  2  0  0  0  0  0  0  0  0  0
    6.0870   -3.8650  -21.8780 C   0  0  0  0  0  0  0  0  0  0  0  0
    6.1540   -2.7210  -22.3260 O   0  0  0  0  0  0  0  0  0  0  0  0
    4.3890   -3.8250  -20.0460 C   0  0  0  0  0  0  0  0  0  0  0  0
    3.8970   -4.6370  -18.8670 C   0  0  0  0  0  0  0  0  0  0  0  0
    4.6990   -4.9090  -17.9490 O   0  0  0  0  0  0  0  0  0  0  0  0
    2.7040   -5.0100  -18.8620 O   0  0  0  0  0  0  0  0  0  0  0  0
    6.2210   -4.9430  -22.6390 N   0  0  0  0  0  0  0  0  0  0  0  0
    6.3440   -4.8320  -24.0760 C   0  0  0  0  0  0  0  0  0  0  0  0
    5.0120   -5.1270  -24.7200 C   0  0  0  0  0  0  0  0  0  0  0  0
    4.0290   -5.3810  -24.0370 O   0  0  0  0  0  0  0  0  0  0  0  0
    4.9650   -5.0870  -26.0400 N   0  0  0  0  0  0  0  0  0  0  0  0
    3.7360   -5.4180  -26.7230 C   0  0  0  0  0  0  0  0  0  0  0  0
    3.3590   -4.4000  -27.7670 C   0  0  0  0  0  0  0  0  0  0  0  0
    3.5510   -3.2000  -27.5730 O   0  0  0  0  0  0  0  0  0  0  0  0
    2.8170   -4.8980  -28.8760 N   0  0  0  0  0  0  0  0  0  0  0  0
    2.4170   -4.0680  -30.0080 C   0  0  2  0  0  0  0  0  0  0  0  0
    1.0910   -3.3670  -29.7390 C   0  0  0  0  0  0  0  0  0  0  0  0
    0.1430   -3.4840  -30.5190 O   0  0  0  0  0  0  0  0  0  0  0  0
    2.3250   -4.9090  -31.2770 C   0  0  0  0  0  0  0  0  0  0  0  0
    1.0340   -2.6500  -28.6220 N   0  0  0  0  0  0  0  0  0  0  0  0
   -0.1030   -1.8060  -28.3020 C   0  0  2  0  0  0  0  0  0  0  0  0
    0.0680   -0.4400  -28.9570 C   0  0  0  0  0  0  0  0  0  0  0  0
    1.0400   -0.2070  -29.6760 O   0  0  0  0  0  0  0  0  0  0  0  0
   -0.2430   -1.6530  -26.7930 C   0  0  0  0  0  0  0  0  0  0  0  0
    1.0040   -1.0680  -26.1590 C   0  0  0  0  0  0  0  0  0  0  0  0
    1.9410   -1.7930  -25.8180 O   0  0  0  0  0  0  0  0  0  0  0  0
    1.0300    0.2540  -26.0110 N   0  0  0  0  0  0  0  0  0  0  0  0
  2  1  1  1
  3  2  1  0
  4  3  2  0
  5  2  1  0
  6  5  1  0
  7  6  2  0
  8  6  1  0
 10  9  1  1
 11 10  1  0
 12 11  2  0
 13 10  1  0
 14 13  1  0
 13 15  1  1
 16 11  1  0
 17 16  1  0
 18 17  1  0
 19 18  2  0
 17 20  1  1
 21 20  1  0
 22 21  2  0
 23 21  1  0
 24 18  1  0
 25 24  1  0
 26 25  1  0
 27 26  2  0
 25 28  1  6
 29 28  1  0
 30 29  2  0
 31 29  1  0
 33 32  1  6
 34 33  1  0
 35 34  2  0
 36 33  1  0
 37 36  1  0
 38 37  1  0
 39 38  1  0
 40 39  1  0
 41 40  1  0
 42 40  2  0
 43 34  1  0
 44 43  1  0
 45 44  1  0
 46 45  2  0
 44 47  1  1
 48 47  1  0
 49 48  2  0
 50 48  1  0
 51 45  1  0
 52 51  1  0
 53 52  1  0
 54 53  2  0
 55 53  1  0
 56 55  1  0
 57 56  1  0
 58 57  2  0
 59 57  1  0
 60 59  1  0
 61 60  1  0
 62 61  2  0
 60 63  1  6
 64 61  1  0
 65 64  1  0
 66 65  1  0
 67 66  2  0
 65 68  1  1
 69 68  1  0
 70 69  2  0
 71 69  1  0
M  END
$$$$
