
     RDKit          3D

152147  0  0  0  0  0  0  0  0999 V2000
   13.4990   -6.1180  -22.6870 N   0  0  0  0  0  0  0  0  0  0  0  0
   14.1710   -7.2550  -22.0780 C   0  0  2  0  0  0  0  0  0  0  0  0
   15.3770   -6.7970  -21.2770 C   0  0  0  0  0  0  0  0  0  0  0  0
   15.9750   -7.5830  -20.5510 O   0  0  0  0  0  0  0  0  0  0  0  0
   14.5930   -8.2610  -23.1450 C   0  0  0  0  0  0  0  0  0  0  0  0
   15.7470   -5.5310  -21.4270 N   0  0  0  0  0  0  0  0  0  0  0  0
   16.8430   -4.9830  -20.6470 C   0  0  2  0  0  0  0  0  0  0  0  0
   16.3170   -4.4740  -19.3230 C   0  0  0  0  0  0  0  0  0  0  0  0
   15.2200   -3.9250  -19.2500 O   0  0  0  0  0  0  0  0  0  0  0  0
   17.5620   -3.8620  -21.3990 C   0  0  0  0  0  0  0  0  0  0  0  0
   18.4100   -4.3430  -22.5750 C   0  0  0  0  0  0  0  0  0  0  0  0
   18.9840   -5.7320  -22.3110 C   0  0  0  0  0  0  0  0  0  0  0  0
   19.7110   -6.2790  -23.5320 C   0  0  0  0  0  0  0  0  0  0  0  0
   19.8690   -7.7660  -23.4970 N   0  0  0  0  0  0  0  0  0  0  0  0
   17.1020   -4.6760  -18.2730 N   0  0  0  0  0  0  0  0  0  0  0  0
   16.7160   -4.2450  -16.9400 C   0  0  2  0  0  0  0  0  0  0  0  0
   16.8320   -2.7320  -16.8240 C   0  0  0  0  0  0  0  0  0  0  0  0
   17.7530   -2.1250  -17.3780 O   0  0  0  0  0  0  0  0  0  0  0  0
   17.5810   -4.9140  -15.8500 C   0  0  2  0  0  0  0  0  0  0  0  0
   17.5030   -6.3400  -15.9760 O   0  0  0  0  0  0  0  0  0  0  0  0
   17.1040   -4.5080  -14.4650 C   0  0  0  0  0  0  0  0  0  0  0  0
    4.3370  -10.0360  -13.1920 N   0  0  0  0  0  0  0  0  0  0  0  0
    3.3660  -10.8570  -13.9160 C   0  0  2  0  0  0  0  0  0  0  0  0
    3.4670  -12.3400  -13.5600 C   0  0  0  0  0  0  0  0  0  0  0  0
    2.4790  -13.0710  -13.6350 O   0  0  0  0  0  0  0  0  0  0  0  0
    3.5360  -10.6800  -15.4230 C   0  0  0  0  0  0  0  0  0  0  0  0
    3.3340   -9.3330  -15.7980 O   0  0  0  0  0  0  0  0  0  0  0  0
    4.6610  -12.7840  -13.1830 N   0  0  0  0  0  0  0  0  0  0  0  0
    4.8690  -14.1730  -12.8360 C   0  0  0  0  0  0  0  0  0  0  0  0
    6.3060  -14.4600  -12.4670 C   0  0  0  0  0  0  0  0  0  0  0  0
    7.1110  -13.5430  -12.3260 O   0  0  0  0  0  0  0  0  0  0  0  0
    6.6260  -15.7410  -12.3160 N   0  0  0  0  0  0  0  0  0  0  0  0
    7.9600  -16.1600  -11.9260 C   0  0  0  0  0  0  0  0  0  0  0  0
    7.9470  -16.7780  -10.5440 C   0  0  0  0  0  0  0  0  0  0  0  0
    6.8980  -16.8570   -9.9070 O   0  0  0  0  0  0  0  0  0  0  0  0
    9.1090  -17.2200  -10.0770 N   0  0  0  0  0  0  0  0  0  0  0  0
    9.2120  -17.8220   -8.7510 C   0  0  2  0  0  0  0  0  0  0  0  0
    9.1170  -16.7430   -7.6770 C   0  0  0  0  0  0  0  0  0  0  0  0
    9.2370  -15.5490   -7.9690 O   0  0  0  0  0  0  0  0  0  0  0  0
   10.5220  -18.6030   -8.6020 C   0  0  0  0  0  0  0  0  0  0  0  0
   10.7570  -19.5800   -9.7420 C   0  0  0  0  0  0  0  0  0  0  0  0
    9.7720  -20.0750  -10.3380 O   0  0  0  0  0  0  0  0  0  0  0  0
   11.9380  -19.8570  -10.0400 O   0  0  0  0  0  0  0  0  0  0  0  0
   11.0940  -15.7110   -5.7150 N   0  0  0  0  0  0  0  0  0  0  0  0
   12.3170  -14.9410   -5.5690 C   0  0  2  0  0  0  0  0  0  0  0  0
   12.2800  -13.6530   -6.3890 C   0  0  0  0  0  0  0  0  0  0  0  0
   13.1220  -12.7750   -6.2040 O   0  0  0  0  0  0  0  0  0  0  0  0
   13.5290  -15.7930   -5.9600 C   0  0  0  0  0  0  0  0  0  0  0  0
   13.9150  -16.8560   -4.9190 C   0  0  0  0  0  0  0  0  0  0  0  0
   13.0290  -18.0940   -4.9670 C   0  0  0  0  0  0  0  0  0  0  0  0
   12.2820  -18.2510   -5.9570 O   0  0  0  0  0  0  0  0  0  0  0  0
   13.0830  -18.9110   -4.0160 O   0  0  0  0  0  0  0  0  0  0  0  0
   11.3070  -13.5260   -7.2880 N   0  0  0  0  0  0  0  0  0  0  0  0
   11.1880  -12.2960   -8.0720 C   0  0  2  0  0  0  0  0  0  0  0  0
    9.7930  -11.6510   -8.0250 C   0  0  0  0  0  0  0  0  0  0  0  0
    9.6610  -10.4480   -8.2670 O   0  0  0  0  0  0  0  0  0  0  0  0
   11.5720  -12.5310   -9.5450 C   0  0  2  0  0  0  0  0  0  0  0  0
   10.5390  -13.4010  -10.2470 C   0  0  0  0  0  0  0  0  0  0  0  0
   12.9520  -13.1520   -9.6480 C   0  0  0  0  0  0  0  0  0  0  0  0
   10.9560  -13.7760  -11.6320 C   0  0  0  0  0  0  0  0  0  0  0  0
   15.0030  -21.6000   -3.6500 N   0  0  0  0  0  0  0  0  0  0  0  0
   15.7290  -21.8310   -4.8930 C   0  0  2  0  0  0  0  0  0  0  0  0
   17.0180  -21.0150   -4.8920 C   0  0  0  0  0  0  0  0  0  0  0  0
   16.9820  -19.7930   -4.7280 O   0  0  0  0  0  0  0  0  0  0  0  0
   14.8750  -21.4600   -6.1110 C   0  0  0  0  0  0  0  0  0  0  0  0
   13.6000  -22.2770   -6.2090 C   0  0  0  0  0  0  0  0  0  0  0  0
   13.6070  -23.3890   -6.7290 O   0  0  0  0  0  0  0  0  0  0  0  0
   12.4950  -21.7190   -5.7240 N   0  0  0  0  0  0  0  0  0  0  0  0
   18.1530  -21.6840   -5.0740 N   0  0  0  0  0  0  0  0  0  0  0  0
   19.4570  -21.0200   -4.9930 C   0  0  2  0  0  0  0  0  0  0  0  0
   19.7280  -20.0660   -6.1650 C   0  0  0  0  0  0  0  0  0  0  0  0
   19.7640  -20.4910   -7.3240 O   0  0  0  0  0  0  0  0  0  0  0  0
   20.5730  -22.0670   -4.9060 C   0  0  0  0  0  0  0  0  0  0  0  0
   20.8340  -22.5990   -3.4990 C   0  0  0  0  0  0  0  0  0  0  0  0
   22.0370  -23.9500   -3.4580 S   0  0  0  0  0  0  0  0  0  0  0  0
   20.9920  -25.3550   -3.8660 C   0  0  0  0  0  0  0  0  0  0  0  0
   19.9330  -18.7830   -5.8500 N   0  0  0  0  0  0  0  0  0  0  0  0
   20.2270  -17.7560   -6.8590 C   0  0  2  0  0  0  0  0  0  0  0  0
   21.5590  -18.0330   -7.5510 C   0  0  0  0  0  0  0  0  0  0  0  0
   21.8210  -17.5240   -8.6470 O   0  0  0  0  0  0  0  0  0  0  0  0
   20.2420  -16.3510   -6.2320 C   0  0  0  0  0  0  0  0  0  0  0  0
   21.4070  -16.0920   -5.3030 C   0  0  0  0  0  0  0  0  0  0  0  0
   21.4240  -16.2560   -3.9470 C   0  0  0  0  0  0  0  0  0  0  0  0
   22.7160  -15.6130   -5.6640 C   0  0  0  0  0  0  0  0  0  0  0  0
   22.6570  -15.9150   -3.4450 N   0  0  0  0  0  0  0  0  0  0  0  0
   23.4690  -15.5180   -4.4760 C   0  0  0  0  0  0  0  0  0  0  0  0
   23.3230  -15.2590   -6.8750 C   0  0  0  0  0  0  0  0  0  0  0  0
   24.7960  -15.0840   -4.4620 C   0  0  0  0  0  0  0  0  0  0  0  0
   24.6410  -14.8290   -6.8580 C   0  0  0  0  0  0  0  0  0  0  0  0
   25.3610  -14.7450   -5.6600 C   0  0  0  0  0  0  0  0  0  0  0  0
   22.3900  -18.8400   -6.8920 N   0  0  0  0  0  0  0  0  0  0  0  0
   23.6260  -19.3590   -7.4680 C   0  0  2  0  0  0  0  0  0  0  0  0
   23.3440  -20.0200   -8.8210 C   0  0  0  0  0  0  0  0  0  0  0  0
   24.2150  -20.0760   -9.6930 O   0  0  0  0  0  0  0  0  0  0  0  0
   24.2960  -20.3580   -6.5070 C   0  0  0  0  0  0  0  0  0  0  0  0
   24.9180  -19.7390   -5.2390 C   0  0  0  0  0  0  0  0  0  0  0  0
   24.0080  -19.8000   -4.0100 C   0  0  0  0  0  0  0  0  0  0  0  0
   22.8190  -19.4800   -4.0810 O   0  0  0  0  0  0  0  0  0  0  0  0
   24.5720  -20.2120   -2.8760 N   0  0  0  0  0  0  0  0  0  0  0  0
   22.1180  -20.5140   -8.9840 N   0  0  0  0  0  0  0  0  0  0  0  0
   21.6600  -21.0590  -10.2460 C   0  0  0  0  0  0  0  0  0  0  0  0
   21.6120  -22.5700  -10.1960 C   0  0  0  0  0  0  0  0  0  0  0  0
   21.2700  -23.2310  -11.1750 O   0  0  0  0  0  0  0  0  0  0  0  0
   21.9630  -23.1200   -9.0420 N   0  0  0  0  0  0  0  0  0  0  0  0
   21.9570  -24.5630   -8.8670 C   0  0  2  0  0  0  0  0  0  0  0  0
   20.5320  -25.1160   -8.8460 C   0  0  0  0  0  0  0  0  0  0  0  0
   20.0350  -25.6020   -9.8690 O   0  0  0  0  0  0  0  0  0  0  0  0
   22.6910  -24.9620   -7.5800 C   0  0  2  0  0  0  0  0  0  0  0  0
   22.2540  -24.1290   -6.4980 O   0  0  0  0  0  0  0  0  0  0  0  0
   24.1820  -24.7830   -7.7570 C   0  0  0  0  0  0  0  0  0  0  0  0
   11.2860   -3.8500  -14.9880 N   0  0  0  0  0  0  0  0  0  0  0  0
   11.1340   -4.2290  -16.3880 C   0  0  2  0  0  0  0  0  0  0  0  0
    9.8580   -3.6040  -16.9200 C   0  0  0  0  0  0  0  0  0  0  0  0
    8.8360   -3.5480  -16.2320 O   0  0  0  0  0  0  0  0  0  0  0  0
   11.0900   -5.7590  -16.6190 C   0  0  2  0  0  0  0  0  0  0  0  0
    9.8530   -6.2900  -16.1310 O   0  0  0  0  0  0  0  0  0  0  0  0
   12.2550   -6.4430  -15.9340 C   0  0  0  0  0  0  0  0  0  0  0  0
    7.1240   -2.9350  -13.6970 N   0  0  0  0  0  0  0  0  0  0  0  0
    6.9260   -3.9600  -12.6860 C   0  0  2  0  0  0  0  0  0  0  0  0
    8.2720   -4.2550  -12.0360 C   0  0  0  0  0  0  0  0  0  0  0  0
    9.2960   -4.2160  -12.7130 O   0  0  0  0  0  0  0  0  0  0  0  0
    6.3300   -5.2220  -13.3120 C   0  0  0  0  0  0  0  0  0  0  0  0
    5.0150   -5.0040  -14.0440 C   0  0  0  0  0  0  0  0  0  0  0  0
    4.6120   -6.2280  -14.8320 C   0  0  0  0  0  0  0  0  0  0  0  0
    3.4580   -5.9500  -15.6710 N   0  0  0  0  0  0  0  0  0  0  0  0
    2.2010   -6.1390  -15.2910 C   0  0  0  0  0  0  0  0  0  0  0  0
    1.9420   -6.6120  -14.0830 N   0  0  0  0  0  0  0  0  0  0  0  0
    1.2020   -5.8560  -16.1130 N   0  0  0  0  0  0  0  0  0  0  0  0
   14.3720   -7.9630  -11.1330 N   0  0  0  0  0  0  0  0  0  0  0  0
   15.2250   -8.8150  -10.3190 C   0  0  0  0  0  0  0  0  0  0  0  0
   15.5660  -10.1350  -10.9820 C   0  0  0  0  0  0  0  0  0  0  0  0
   15.0940  -10.4140  -12.0910 O   0  0  0  0  0  0  0  0  0  0  0  0
   16.3890  -10.9370  -10.3050 N   0  0  0  0  0  0  0  0  0  0  0  0
   16.8110  -12.2300  -10.8140 C   0  0  0  0  0  0  0  0  0  0  0  0
   18.2950  -12.2490  -11.0720 C   0  0  0  0  0  0  0  0  0  0  0  0
   19.0330  -13.0040  -10.4420 O   0  0  0  0  0  0  0  0  0  0  0  0
   18.7380  -11.4060  -12.0010 N   0  0  0  0  0  0  0  0  0  0  0  0
   20.1770  -11.2590  -12.2420 C   0  0  2  0  0  0  0  0  0  0  0  0
   20.8020  -10.3720  -11.1630 C   0  0  0  0  0  0  0  0  0  0  0  0
   20.6770   -9.1530  -11.1880 O   0  0  0  0  0  0  0  0  0  0  0  0
   20.4630  -10.6860  -13.6430 C   0  0  0  0  0  0  0  0  0  0  0  0
   21.8320  -11.0620  -14.1640 C   0  0  0  0  0  0  0  0  0  0  0  0
   22.6910  -11.5060  -13.4030 O   0  0  0  0  0  0  0  0  0  0  0  0
   22.0410  -10.8980  -15.4770 N   0  0  0  0  0  0  0  0  0  0  0  0
   21.4570  -11.0030  -10.1970 N   0  0  0  0  0  0  0  0  0  0  0  0
   22.0540  -10.2930   -9.0740 C   0  0  2  0  0  0  0  0  0  0  0  0
   23.3120   -9.5580   -9.5340 C   0  0  0  0  0  0  0  0  0  0  0  0
   23.8650   -8.7300   -8.8080 O   0  0  0  0  0  0  0  0  0  0  0  0
   22.3850  -11.2620   -7.9060 C   0  0  2  0  0  0  0  0  0  0  0  0
   21.2570  -12.2730   -7.7280 C   0  0  0  0  0  0  0  0  0  0  0  0
   22.5990  -10.5060   -6.6030 C   0  0  0  0  0  0  0  0  0  0  0  0
   19.9210  -11.6450   -7.3710 C   0  0  0  0  0  0  0  0  0  0  0  0
  2  1  1  0
  3  2  1  0
  4  3  2  0
  2  5  1  6
  6  3  1  0
  7  6  1  0
  8  7  1  0
  9  8  2  0
  7 10  1  6
 11 10  1  0
 12 11  1  0
 13 12  1  0
 14 13  1  0
 15  8  1  0
 16 15  1  6
 17 16  1  0
 18 17  2  0
 19 16  1  0
 20 19  1  0
 19 21  1  1
 23 22  1  1
 24 23  1  0
 25 24  2  0
 26 23  1  0
 27 26  1  0
 28 24  1  0
 29 28  1  0
 30 29  1  0
 31 30  2  0
 32 30  1  0
 33 32  1  0
 34 33  1  0
 35 34  2  0
 36 34  1  0
 37 36  1  0
 38 37  1  0
 39 38  2  0
 37 40  1  6
 41 40  1  0
 42 41  2  0
 43 41  1  0
 45 44  1  6
 46 45  1  0
 47 46  2  0
 48 45  1  0
 49 48  1  0
 50 49  1  0
 51 50  2  0
 52 50  1  0
 53 46  1  0
 54 53  1  1
 55 54  1  0
 56 55  2  0
 57 54  1  0
 58 57  1  0
 57 59  1  1
 60 58  1  0
 62 61  1  1
 63 62  1  0
 64 63  2  0
 65 62  1  0
 66 65  1  0
 67 66  2  0
 68 66  1  0
 69 63  1  0
 70 69  1  0
 71 70  1  0
 72 71  2  0
 70 73  1  6
 74 73  1  0
 75 74  1  0
 76 75  1  0
 77 71  1  0
 78 77  1  0
 79 78  1  0
 80 79  2  0
 78 81  1  1
 82 81  1  0
 83 82  2  0
 84 82  1  0
 85 83  1  0
 86 84  2  0
 86 85  1  0
 87 84  1  0
 88 86  1  0
 89 87  2  0
 90 89  1  0
 90 88  2  0
 91 79  1  0
 92 91  1  0
 93 92  1  0
 94 93  2  0
 92 95  1  1
 96 95  1  0
 97 96  1  0
 98 97  2  0
 99 97  1  0
100 93  1  0
101100  1  0
102101  1  0
103102  2  0
104102  1  0
105104  1  1
106105  1  0
107106  2  0
108105  1  0
109108  1  0
108110  1  6
112111  1  1
113112  1  0
114113  2  0
115112  1  0
116115  1  0
115117  1  1
119118  1  6
120119  1  0
121120  2  0
122119  1  0
123122  1  0
124123  1  0
125124  1  0
126125  1  0
127126  1  0
128126  2  0
130129  1  0
131130  1  0
132131  2  0
133131  1  0
134133  1  0
135134  1  0
136135  2  0
137135  1  0
138137  1  0
139138  1  0
140139  2  0
138141  1  6
142141  1  0
143142  2  0
144142  1  0
145139  1  0
146145  1  6
147146  1  0
148147  2  0
149146  1  0
150149  1  0
149151  1  1
152150  1  0
M  END
$$$$
