
     RDKit          3D

 71 68  0  0  0  0  0  0  0  0999 V2000
   18.9690    0.3350   22.6370 N   0  0  0  0  0  0  0  0  0  0  0  0
   18.1600   -0.0530   23.7790 C   0  0  2  0  0  0  0  0  0  0  0  0
   16.6670   -0.1010   23.4470 C   0  0  0  0  0  0  0  0  0  0  0  0
   15.9990    0.9390   23.3950 O   0  0  0  0  0  0  0  0  0  0  0  0
   18.4010    0.9270   24.9160 C   0  0  0  0  0  0  0  0  0  0  0  0
   18.7490    0.2520   26.2090 C   0  0  0  0  0  0  0  0  0  0  0  0
   18.0950   -0.7020   26.6340 O   0  0  0  0  0  0  0  0  0  0  0  0
   19.7920    0.7510   26.8510 N   0  0  0  0  0  0  0  0  0  0  0  0
   14.1040   -0.9910   25.1090 N   0  0  0  0  0  0  0  0  0  0  0  0
   13.1580   -0.5550   26.1260 C   0  0  2  0  0  0  0  0  0  0  0  0
   13.0540    0.9820   26.1510 C   0  0  0  0  0  0  0  0  0  0  0  0
   12.0900    1.5310   26.6830 O   0  0  0  0  0  0  0  0  0  0  0  0
   13.5400   -1.1080   27.5150 C   0  0  2  0  0  0  0  0  0  0  0  0
   14.8730   -0.7050   27.8470 O   0  0  0  0  0  0  0  0  0  0  0  0
   13.4750   -2.6330   27.5090 C   0  0  0  0  0  0  0  0  0  0  0  0
   14.0340    1.6580   25.5480 N   0  0  0  0  0  0  0  0  0  0  0  0
   14.0680    3.1250   25.4530 C   0  0  2  0  0  0  0  0  0  0  0  0
   13.4230    3.6320   24.1520 C   0  0  0  0  0  0  0  0  0  0  0  0
   14.0230    3.5430   23.0820 O   0  0  0  0  0  0  0  0  0  0  0  0
   15.5250    3.6190   25.5540 C   0  0  0  0  0  0  0  0  0  0  0  0
   15.6420    5.1450   25.6070 C   0  0  0  0  0  0  0  0  0  0  0  0
   14.7110    5.8710   25.2670 O   0  0  0  0  0  0  0  0  0  0  0  0
   16.8020    5.6310   26.0330 N   0  0  0  0  0  0  0  0  0  0  0  0
   12.2170    4.1900   24.2470 N   0  0  0  0  0  0  0  0  0  0  0  0
   11.4700    4.5940   23.0520 C   0  0  2  0  0  0  0  0  0  0  0  0
   12.0590    5.8050   22.3190 C   0  0  0  0  0  0  0  0  0  0  0  0
   11.5580    6.1960   21.2600 O   0  0  0  0  0  0  0  0  0  0  0  0
   10.0020    4.8850   23.4060 C   0  0  0  0  0  0  0  0  0  0  0  0
    9.8300    6.1670   24.2160 C   0  0  0  0  0  0  0  0  0  0  0  0
   10.1410    7.2530   23.7400 O   0  0  0  0  0  0  0  0  0  0  0  0
    9.3040    6.0420   25.4400 N   0  0  0  0  0  0  0  0  0  0  0  0
    9.3030    3.2330   18.2040 N   0  0  0  0  0  0  0  0  0  0  0  0
    8.2530    2.4470   18.8360 C   0  0  2  0  0  0  0  0  0  0  0  0
    7.4830    3.3020   19.8290 C   0  0  0  0  0  0  0  0  0  0  0  0
    8.0820    3.9910   20.6520 O   0  0  0  0  0  0  0  0  0  0  0  0
    8.8420    1.2140   19.5300 C   0  0  0  0  0  0  0  0  0  0  0  0
    7.8740    0.5270   20.4970 C   0  0  0  0  0  0  0  0  0  0  0  0
    8.5910   -0.4620   21.3980 C   0  0  0  0  0  0  0  0  0  0  0  0
    9.5340    0.1930   22.3020 N   0  0  0  0  0  0  0  0  0  0  0  0
    9.1970    0.7500   23.4620 C   0  0  0  0  0  0  0  0  0  0  0  0
    7.9340    0.7400   23.8710 N   0  0  0  0  0  0  0  0  0  0  0  0
   10.1260    1.3200   24.2150 N   0  0  0  0  0  0  0  0  0  0  0  0
    6.1570    3.2590   19.7410 N   0  0  0  0  0  0  0  0  0  0  0  0
    5.3050    4.0170   20.6490 C   0  0  2  0  0  0  0  0  0  0  0  0
    5.5390    3.5960   22.0990 C   0  0  0  0  0  0  0  0  0  0  0  0
    5.6940    2.4120   22.3860 O   0  0  0  0  0  0  0  0  0  0  0  0
    3.8260    3.8300   20.2840 C   0  0  0  0  0  0  0  0  0  0  0  0
    3.3910    4.6950   19.1080 C   0  0  0  0  0  0  0  0  0  0  0  0
    4.2680    5.2580   18.4180 O   0  0  0  0  0  0  0  0  0  0  0  0
    2.1670    4.8070   18.8750 O   0  0  0  0  0  0  0  0  0  0  0  0
    5.5720    4.5690   23.0070 N   0  0  0  0  0  0  0  0  0  0  0  0
    5.6870    4.2880   24.4290 C   0  0  0  0  0  0  0  0  0  0  0  0
    4.4950    4.8580   25.1700 C   0  0  0  0  0  0  0  0  0  0  0  0
    3.4820    5.1890   24.5540 O   0  0  0  0  0  0  0  0  0  0  0  0
    4.6100    4.9800   26.4910 N   0  0  0  0  0  0  0  0  0  0  0  0
    3.5430    5.5530   27.2880 C   0  0  0  0  0  0  0  0  0  0  0  0
    3.0180    4.5480   28.2850 C   0  0  0  0  0  0  0  0  0  0  0  0
    3.1370    3.3440   28.0660 O   0  0  0  0  0  0  0  0  0  0  0  0
    2.4440    5.0420   29.3810 N   0  0  0  0  0  0  0  0  0  0  0  0
    1.9430    4.1880   30.4610 C   0  0  2  0  0  0  0  0  0  0  0  0
    0.7580    3.3340   29.9970 C   0  0  0  0  0  0  0  0  0  0  0  0
   -0.3920    3.5790   30.3700 O   0  0  0  0  0  0  0  0  0  0  0  0
    1.5520    5.0360   31.6750 C   0  0  0  0  0  0  0  0  0  0  0  0
    1.0570    2.3260   29.1800 N   0  0  0  0  0  0  0  0  0  0  0  0
    0.0440    1.4280   28.6320 C   0  0  2  0  0  0  0  0  0  0  0  0
    0.1090    0.0280   29.2260 C   0  0  0  0  0  0  0  0  0  0  0  0
    0.9710   -0.2660   30.0530 O   0  0  0  0  0  0  0  0  0  0  0  0
    0.1880    1.3220   27.1160 C   0  0  0  0  0  0  0  0  0  0  0  0
    1.4220    0.5220   26.6950 C   0  0  0  0  0  0  0  0  0  0  0  0
    2.5310    0.7700   27.1760 O   0  0  0  0  0  0  0  0  0  0  0  0
    1.2290   -0.4440   25.7920 N   0  0  0  0  0  0  0  0  0  0  0  0
  2  1  1  6
  3  2  1  0
  4  3  2  0
  5  2  1  0
  6  5  1  0
  7  6  2  0
  8  6  1  0
 10  9  1  6
 11 10  1  0
 12 11  2  0
 13 10  1  0
 14 13  1  0
 13 15  1  6
 16 11  1  0
 17 16  1  0
 18 17  1  0
 19 18  2  0
 17 20  1  6
 21 20  1  0
 22 21  2  0
 23 21  1  0
 24 18  1  0
 25 24  1  0
 26 25  1  0
 27 26  2  0
 25 28  1  1
 29 28  1  0
 30 29  2  0
 31 29  1  0
 33 32  1  1
 34 33  1  0
 35 34  2  0
 36 33  1  0
 37 36  1  0
 38 37  1  0
 39 38  1  0
 40 39  1  0
 41 40  1  0
 42 40  2  0
 43 34  1  0
 44 43  1  0
 45 44  1  0
 46 45  2  0
 44 47  1  6
 48 47  1  0
 49 48  2  0
 50 48  1  0
 51 45  1  0
 52 51  1  0
 53 52  1  0
 54 53  2  0
 55 53  1  0
 56 55  1  0
 57 56  1  0
 58 57  2  0
 59 57  1  0
 60 59  1  0
 61 60  1  0
 62 61  2  0
 60 63  1  1
 64 61  1  0
 65 64  1  0
 66 65  1  0
 67 66  2  0
 65 68  1  6
 69 68  1  0
 70 69  2  0
 71 69  1  0
M  END
$$$$
