
     RDKit          3D

167162  0  0  0  0  0  0  0  0999 V2000
   29.9270   11.1670    8.6440 N   0  0  0  0  0  0  0  0  0  0  0  0
   28.9260   12.2270    8.6540 C   0  0  2  0  0  0  0  0  0  0  0  0
   29.5180   13.5470    8.1820 C   0  0  0  0  0  0  0  0  0  0  0  0
   28.9430   14.2170    7.3260 O   0  0  0  0  0  0  0  0  0  0  0  0
   28.3290   12.4060   10.0460 C   0  0  0  0  0  0  0  0  0  0  0  0
   27.3530   13.5820   10.1550 C   0  0  0  0  0  0  0  0  0  0  0  0
   25.9850   13.2760    9.5630 C   0  0  0  0  0  0  0  0  0  0  0  0
   25.8150   12.3080    8.8200 O   0  0  0  0  0  0  0  0  0  0  0  0
   25.0000   14.1030    9.8970 N   0  0  0  0  0  0  0  0  0  0  0  0
   15.4240    8.8710    4.5000 N   0  0  0  0  0  0  0  0  0  0  0  0
   14.6540    8.6560    5.7160 C   0  0  2  0  0  0  0  0  0  0  0  0
   13.6100    7.5700    5.4890 C   0  0  0  0  0  0  0  0  0  0  0  0
   13.2590    7.2720    4.3460 O   0  0  0  0  0  0  0  0  0  0  0  0
   13.9520    9.9380    6.1790 C   0  0  2  0  0  0  0  0  0  0  0  0
   12.9830   10.3310    5.2000 O   0  0  0  0  0  0  0  0  0  0  0  0
   14.9620   11.0590    6.3710 C   0  0  0  0  0  0  0  0  0  0  0  0
   13.0950    6.4140   22.8890 N   0  0  0  0  0  0  0  0  0  0  0  0
   13.7400    7.5610   22.2560 C   0  0  2  0  0  0  0  0  0  0  0  0
   14.8730    7.1110   21.3410 C   0  0  0  0  0  0  0  0  0  0  0  0
   15.4400    7.9210   20.6050 O   0  0  0  0  0  0  0  0  0  0  0  0
   14.2640    8.5330   23.3060 C   0  0  0  0  0  0  0  0  0  0  0  0
   15.2020    5.8230   21.4020 N   0  0  0  0  0  0  0  0  0  0  0  0
   16.2790    5.2640   20.5940 C   0  0  2  0  0  0  0  0  0  0  0  0
   15.7260    4.6800   19.3130 C   0  0  0  0  0  0  0  0  0  0  0  0
   14.7190    3.9730   19.3370 O   0  0  0  0  0  0  0  0  0  0  0  0
   17.0490    4.1890   21.3650 C   0  0  0  0  0  0  0  0  0  0  0  0
   17.7750    4.7090   22.6030 C   0  0  0  0  0  0  0  0  0  0  0  0
   18.5960    5.9510   22.2820 C   0  0  0  0  0  0  0  0  0  0  0  0
   19.3940    6.4150   23.4870 C   0  0  0  0  0  0  0  0  0  0  0  0
   19.8060    7.8460   23.3520 N   0  0  0  0  0  0  0  0  0  0  0  0
   16.3910    4.9760   18.1990 N   0  0  0  0  0  0  0  0  0  0  0  0
   15.9600    4.4980   16.8880 C   0  0  2  0  0  0  0  0  0  0  0  0
   16.1920    2.9970   16.7290 C   0  0  0  0  0  0  0  0  0  0  0  0
   17.1940    2.4530   17.1990 O   0  0  0  0  0  0  0  0  0  0  0  0
   16.6870    5.2520   15.7490 C   0  0  2  0  0  0  0  0  0  0  0  0
   16.4130    6.6540   15.8540 O   0  0  0  0  0  0  0  0  0  0  0  0
   16.2240    4.7510   14.3550 C   0  0  0  0  0  0  0  0  0  0  0  0
    3.9170   10.0210   13.5020 N   0  0  0  0  0  0  0  0  0  0  0  0
    3.0240   10.8370   14.3230 C   0  0  2  0  0  0  0  0  0  0  0  0
    3.0460   12.3170   13.9390 C   0  0  0  0  0  0  0  0  0  0  0  0
    2.0520   13.0230   14.1140 O   0  0  0  0  0  0  0  0  0  0  0  0
    3.3740   10.6820   15.8030 C   0  0  0  0  0  0  0  0  0  0  0  0
    2.8690    9.4630   16.3140 O   0  0  0  0  0  0  0  0  0  0  0  0
    4.1740   12.7850   13.4150 N   0  0  0  0  0  0  0  0  0  0  0  0
    4.2900   14.1700   12.9950 C   0  0  0  0  0  0  0  0  0  0  0  0
    5.7210   14.5030   12.6410 C   0  0  0  0  0  0  0  0  0  0  0  0
    6.5570   13.6080   12.5180 O   0  0  0  0  0  0  0  0  0  0  0  0
    6.0130   15.7900   12.4820 N   0  0  0  0  0  0  0  0  0  0  0  0
    7.3440   16.2160   12.0820 C   0  0  0  0  0  0  0  0  0  0  0  0
    7.3410   16.9210   10.7390 C   0  0  0  0  0  0  0  0  0  0  0  0
    6.2780   17.1850   10.1790 O   0  0  0  0  0  0  0  0  0  0  0  0
    8.5270   17.2460   10.2330 N   0  0  0  0  0  0  0  0  0  0  0  0
    8.6610   17.8630    8.9130 C   0  0  2  0  0  0  0  0  0  0  0  0
    8.5210   16.8100    7.8140 C   0  0  0  0  0  0  0  0  0  0  0  0
    8.6510   15.6150    8.0840 O   0  0  0  0  0  0  0  0  0  0  0  0
   10.0050   18.5860    8.7880 C   0  0  0  0  0  0  0  0  0  0  0  0
   10.1690   19.6910    9.8150 C   0  0  0  0  0  0  0  0  0  0  0  0
    9.1430   20.2320   10.2740 O   0  0  0  0  0  0  0  0  0  0  0  0
   11.3220   20.0190   10.1660 O   0  0  0  0  0  0  0  0  0  0  0  0
    8.2710   17.2480    6.5790 N   0  0  0  0  0  0  0  0  0  0  0  0
    8.0270   16.3120    5.4790 C   0  0  2  0  0  0  0  0  0  0  0  0
    9.1860   15.3360    5.3040 C   0  0  0  0  0  0  0  0  0  0  0  0
    8.9850   14.1820    4.9380 O   0  0  0  0  0  0  0  0  0  0  0  0
    7.7770   17.0580    4.1670 C   0  0  0  0  0  0  0  0  0  0  0  0
    6.4420   17.7950    4.0310 C   0  0  0  0  0  0  0  0  0  0  0  0
    6.3000   18.3540    2.6260 C   0  0  0  0  0  0  0  0  0  0  0  0
    5.2590   16.8940    4.3790 C   0  0  0  0  0  0  0  0  0  0  0  0
   10.3940   15.7980    5.5970 N   0  0  0  0  0  0  0  0  0  0  0  0
   11.5810   14.9710    5.4510 C   0  0  2  0  0  0  0  0  0  0  0  0
   11.5090   13.6620    6.2490 C   0  0  0  0  0  0  0  0  0  0  0  0
   12.1740   12.6890    5.8850 O   0  0  0  0  0  0  0  0  0  0  0  0
   12.8260   15.7610    5.8630 C   0  0  0  0  0  0  0  0  0  0  0  0
   13.2480   16.8400    4.8680 C   0  0  0  0  0  0  0  0  0  0  0  0
   12.3040   18.0380    4.8400 C   0  0  0  0  0  0  0  0  0  0  0  0
   11.5860   18.2620    5.8440 O   0  0  0  0  0  0  0  0  0  0  0  0
   12.2800   18.7490    3.8090 O   0  0  0  0  0  0  0  0  0  0  0  0
   10.7100   13.6310    7.3200 N   0  0  0  0  0  0  0  0  0  0  0  0
   10.5910   12.4140    8.1340 C   0  0  2  0  0  0  0  0  0  0  0  0
    9.2040   11.7470    8.0740 C   0  0  0  0  0  0  0  0  0  0  0  0
    9.1030   10.5230    8.1900 O   0  0  0  0  0  0  0  0  0  0  0  0
   10.9430   12.6760    9.6290 C   0  0  2  0  0  0  0  0  0  0  0  0
   10.0690   13.7680   10.2230 C   0  0  0  0  0  0  0  0  0  0  0  0
   12.4080   13.0590    9.7940 C   0  0  0  0  0  0  0  0  0  0  0  0
   10.5490   14.2080   11.5620 C   0  0  0  0  0  0  0  0  0  0  0  0
   13.8470   21.2910    3.8840 N   0  0  0  0  0  0  0  0  0  0  0  0
   14.5860   21.4070    5.1370 C   0  0  2  0  0  0  0  0  0  0  0  0
   15.8510   20.5630    5.0300 C   0  0  0  0  0  0  0  0  0  0  0  0
   15.7860   19.3940    4.6510 O   0  0  0  0  0  0  0  0  0  0  0  0
   13.7390   20.9490    6.3270 C   0  0  0  0  0  0  0  0  0  0  0  0
   12.5110   21.8090    6.5390 C   0  0  0  0  0  0  0  0  0  0  0  0
   12.6110   23.0230    6.7310 O   0  0  0  0  0  0  0  0  0  0  0  0
   11.3370   21.1830    6.5030 N   0  0  0  0  0  0  0  0  0  0  0  0
   17.0000   21.1450    5.3490 N   0  0  0  0  0  0  0  0  0  0  0  0
   18.2560   20.4100    5.2340 C   0  0  2  0  0  0  0  0  0  0  0  0
   18.4080   19.3840    6.3550 C   0  0  0  0  0  0  0  0  0  0  0  0
   18.1000   19.6610    7.5110 O   0  0  0  0  0  0  0  0  0  0  0  0
   19.4410   21.3760    5.2230 C   0  0  0  0  0  0  0  0  0  0  0  0
   19.7770   21.8970    3.8260 C   0  0  0  0  0  0  0  0  0  0  0  0
   20.9190   23.2840    3.8480 S   0  0  0  0  0  0  0  0  0  0  0  0
   19.8450   24.5960    4.4360 C   0  0  0  0  0  0  0  0  0  0  0  0
   18.8740   18.1900    6.0000 N   0  0  0  0  0  0  0  0  0  0  0  0
   19.0870   17.1250    6.9770 C   0  0  2  0  0  0  0  0  0  0  0  0
   20.3280   17.4190    7.8190 C   0  0  0  0  0  0  0  0  0  0  0  0
   20.5660   16.7830    8.8450 O   0  0  0  0  0  0  0  0  0  0  0  0
   19.2260   15.7670    6.2740 C   0  0  0  0  0  0  0  0  0  0  0  0
   20.3460   15.7280    5.2810 C   0  0  0  0  0  0  0  0  0  0  0  0
   20.2640   15.9920    3.9420 C   0  0  0  0  0  0  0  0  0  0  0  0
   21.7220   15.4220    5.5450 C   0  0  0  0  0  0  0  0  0  0  0  0
   21.5010   15.8650    3.3580 N   0  0  0  0  0  0  0  0  0  0  0  0
   22.4130   15.5150    4.3200 C   0  0  0  0  0  0  0  0  0  0  0  0
   22.4370   15.0770    6.6970 C   0  0  0  0  0  0  0  0  0  0  0  0
   23.7810   15.2750    4.2140 C   0  0  0  0  0  0  0  0  0  0  0  0
   23.7930   14.8380    6.5890 C   0  0  0  0  0  0  0  0  0  0  0  0
   24.4510   14.9360    5.3570 C   0  0  0  0  0  0  0  0  0  0  0  0
   21.1160   18.3890    7.3650 N   0  0  0  0  0  0  0  0  0  0  0  0
   22.3330   18.8000    8.0550 C   0  0  2  0  0  0  0  0  0  0  0  0
   22.0110   19.6800    9.2640 C   0  0  0  0  0  0  0  0  0  0  0  0
   22.9130   20.1910    9.9270 O   0  0  0  0  0  0  0  0  0  0  0  0
   23.2700   19.5500    7.0950 C   0  0  0  0  0  0  0  0  0  0  0  0
   23.6420   18.7870    5.8200 C   0  0  0  0  0  0  0  0  0  0  0  0
   22.6700   19.0280    4.6730 C   0  0  0  0  0  0  0  0  0  0  0  0
   21.4690   18.7880    4.7980 O   0  0  0  0  0  0  0  0  0  0  0  0
   23.1890   19.5130    3.5510 N   0  0  0  0  0  0  0  0  0  0  0  0
   20.7200   19.8580    9.5340 N   0  0  0  0  0  0  0  0  0  0  0  0
   20.2630   20.6730   10.6450 C   0  0  0  0  0  0  0  0  0  0  0  0
   20.4270   22.1570   10.3860 C   0  0  0  0  0  0  0  0  0  0  0  0
   20.3350   22.9690   11.3000 O   0  0  0  0  0  0  0  0  0  0  0  0
   10.5730    3.8290   14.9140 N   0  0  0  0  0  0  0  0  0  0  0  0
   10.4460    4.2320   16.3030 C   0  0  2  0  0  0  0  0  0  0  0  0
    9.2790    3.4500   16.8960 C   0  0  0  0  0  0  0  0  0  0  0  0
    8.3690    3.0380   16.1720 O   0  0  0  0  0  0  0  0  0  0  0  0
   10.2010    5.7430   16.4530 C   0  0  2  0  0  0  0  0  0  0  0  0
    8.8990    6.0660   15.9540 O   0  0  0  0  0  0  0  0  0  0  0  0
   11.2510    6.5320   15.6860 C   0  0  0  0  0  0  0  0  0  0  0  0
   13.7380    7.9650   11.1830 N   0  0  0  0  0  0  0  0  0  0  0  0
   14.8630    8.5410   10.4700 C   0  0  0  0  0  0  0  0  0  0  0  0
   15.1170    9.9690   10.8930 C   0  0  0  0  0  0  0  0  0  0  0  0
   14.7640   10.3640   12.0020 O   0  0  0  0  0  0  0  0  0  0  0  0
   15.7290   10.7500   10.0100 N   0  0  0  0  0  0  0  0  0  0  0  0
   16.0450   12.1330   10.3190 C   0  0  0  0  0  0  0  0  0  0  0  0
   17.4730   12.2830   10.8020 C   0  0  0  0  0  0  0  0  0  0  0  0
   18.1640   13.2410   10.4500 O   0  0  0  0  0  0  0  0  0  0  0  0
   17.9140   11.3370   11.6230 N   0  0  0  0  0  0  0  0  0  0  0  0
   19.3060   11.2900   12.0440 C   0  0  2  0  0  0  0  0  0  0  0  0
   20.0790   10.4600   11.0390 C   0  0  0  0  0  0  0  0  0  0  0  0
   20.0640    9.2300   11.0920 O   0  0  0  0  0  0  0  0  0  0  0  0
   19.4460   10.7050   13.4530 C   0  0  0  0  0  0  0  0  0  0  0  0
   20.8270   10.9340   14.0510 C   0  0  0  0  0  0  0  0  0  0  0  0
   21.7920   11.2200   13.3390 O   0  0  0  0  0  0  0  0  0  0  0  0
   20.9250   10.8060   15.3710 N   0  0  0  0  0  0  0  0  0  0  0  0
   20.7530   11.1380   10.1190 N   0  0  0  0  0  0  0  0  0  0  0  0
   21.3980   10.4650    9.0000 C   0  0  2  0  0  0  0  0  0  0  0  0
   22.6090    9.6770    9.4920 C   0  0  0  0  0  0  0  0  0  0  0  0
   23.1160    8.7890    8.7970 O   0  0  0  0  0  0  0  0  0  0  0  0
   21.7940   11.4820    7.9090 C   0  0  2  0  0  0  0  0  0  0  0  0
   20.5720   12.3110    7.5240 C   0  0  0  0  0  0  0  0  0  0  0  0
   22.3080   10.7900    6.6630 C   0  0  0  0  0  0  0  0  0  0  0  0
   19.4180   11.4720    7.0060 C   0  0  0  0  0  0  0  0  0  0  0  0
   23.0540    9.9800   10.7100 N   0  0  0  0  0  0  0  0  0  0  0  0
   24.1380    9.2200   11.3200 C   0  0  2  0  0  0  0  0  0  0  0  0
   23.7160    7.7670   11.4710 C   0  0  0  0  0  0  0  0  0  0  0  0
   24.5500    6.8630   11.4110 O   0  0  0  0  0  0  0  0  0  0  0  0
   24.5370    9.8040   12.6720 C   0  0  0  0  0  0  0  0  0  0  0  0
   25.2260   11.1540   12.5800 C   0  0  0  0  0  0  0  0  0  0  0  0
   25.6780   11.6430   13.9470 C   0  0  0  0  0  0  0  0  0  0  0  0
   26.2590   13.0460   13.8450 C   0  0  0  0  0  0  0  0  0  0  0  0
   26.7320   13.5750   15.1550 N   0  0  0  0  0  0  0  0  0  0  0  0
  2  1  1  1
  3  2  1  0
  4  3  2  0
  5  2  1  0
  6  5  1  0
  7  6  1  0
  8  7  2  0
  9  7  1  0
 11 10  1  6
 12 11  1  0
 13 12  2  0
 14 11  1  0
 15 14  1  0
 14 16  1  6
 18 17  1  0
 19 18  1  0
 20 19  2  0
 18 21  1  1
 22 19  1  0
 23 22  1  0
 24 23  1  0
 25 24  2  0
 23 26  1  1
 27 26  1  0
 28 27  1  0
 29 28  1  0
 30 29  1  0
 31 24  1  0
 32 31  1  1
 33 32  1  0
 34 33  2  0
 35 32  1  0
 36 35  1  0
 35 37  1  6
 39 38  1  6
 40 39  1  0
 41 40  2  0
 42 39  1  0
 43 42  1  0
 44 40  1  0
 45 44  1  0
 46 45  1  0
 47 46  2  0
 48 46  1  0
 49 48  1  0
 50 49  1  0
 51 50  2  0
 52 50  1  0
 53 52  1  0
 54 53  1  0
 55 54  2  0
 53 56  1  1
 57 56  1  0
 58 57  2  0
 59 57  1  0
 60 54  1  0
 61 60  1  0
 62 61  1  0
 63 62  2  0
 61 64  1  6
 65 64  1  0
 66 65  1  0
 67 65  1  0
 68 62  1  0
 69 68  1  0
 70 69  1  0
 71 70  2  0
 69 72  1  1
 73 72  1  0
 74 73  1  0
 75 74  2  0
 76 74  1  0
 77 70  1  0
 78 77  1  6
 79 78  1  0
 80 79  2  0
 81 78  1  0
 82 81  1  0
 81 83  1  6
 84 82  1  0
 86 85  1  6
 87 86  1  0
 88 87  2  0
 89 86  1  0
 90 89  1  0
 91 90  2  0
 92 90  1  0
 93 87  1  0
 94 93  1  0
 95 94  1  0
 96 95  2  0
 94 97  1  1
 98 97  1  0
 99 98  1  0
100 99  1  0
101 95  1  0
102101  1  0
103102  1  0
104103  2  0
102105  1  6
106105  1  0
107106  2  0
108106  1  0
109107  1  0
110109  1  0
110108  2  0
111108  1  0
112110  1  0
113111  2  0
114112  2  0
114113  1  0
115103  1  0
116115  1  0
117116  1  0
118117  2  0
116119  1  6
120119  1  0
121120  1  0
122121  2  0
123121  1  0
124117  1  0
125124  1  0
126125  1  0
127126  2  0
129128  1  6
130129  1  0
131130  2  0
132129  1  0
133132  1  0
132134  1  6
136135  1  0
137136  1  0
138137  2  0
139137  1  0
140139  1  0
141140  1  0
142141  2  0
143141  1  0
144143  1  0
145144  1  0
146145  2  0
144147  1  1
148147  1  0
149148  2  0
150148  1  0
151145  1  0
152151  1  1
153152  1  0
154153  2  0
155152  1  0
156155  1  0
155157  1  6
158156  1  0
159153  1  0
160159  1  0
161160  1  0
162161  2  0
160163  1  1
164163  1  0
165164  1  0
166165  1  0
167166  1  0
M  END
$$$$
