
     RDKit          3D

 71 68  0  0  0  0  0  0  0  0999 V2000
  -18.9630    0.2460  -23.0010 N   0  0  0  0  0  0  0  0  0  0  0  0
  -18.1100   -0.1370  -24.1070 C   0  0  2  0  0  0  0  0  0  0  0  0
  -16.6420   -0.1320  -23.7230 C   0  0  0  0  0  0  0  0  0  0  0  0
  -16.0160    0.9280  -23.7030 O   0  0  0  0  0  0  0  0  0  0  0  0
  -18.3370    0.8170  -25.2680 C   0  0  0  0  0  0  0  0  0  0  0  0
  -18.7210    0.1150  -26.5370 C   0  0  0  0  0  0  0  0  0  0  0  0
  -18.0250   -0.7880  -27.0010 O   0  0  0  0  0  0  0  0  0  0  0  0
  -19.8510    0.5270  -27.1070 N   0  0  0  0  0  0  0  0  0  0  0  0
  -14.2000   -0.8760  -25.3480 N   0  0  0  0  0  0  0  0  0  0  0  0
  -13.3460   -0.3290  -26.4070 C   0  0  2  0  0  0  0  0  0  0  0  0
  -13.1370    1.1600  -26.2600 C   0  0  0  0  0  0  0  0  0  0  0  0
  -12.0500    1.6440  -26.5080 O   0  0  0  0  0  0  0  0  0  0  0  0
  -13.9100   -0.5770  -27.8090 C   0  0  2  0  0  0  0  0  0  0  0  0
  -14.5640   -1.8510  -27.8320 O   0  0  0  0  0  0  0  0  0  0  0  0
  -12.7890   -0.5570  -28.8580 C   0  0  0  0  0  0  0  0  0  0  0  0
  -14.1720    1.8710  -25.8250 N   0  0  0  0  0  0  0  0  0  0  0  0
  -14.1340    3.3200  -25.6810 C   0  0  2  0  0  0  0  0  0  0  0  0
  -13.4750    3.7120  -24.3530 C   0  0  0  0  0  0  0  0  0  0  0  0
  -14.0480    3.4940  -23.2760 O   0  0  0  0  0  0  0  0  0  0  0  0
  -15.5670    3.8830  -25.7820 C   0  0  0  0  0  0  0  0  0  0  0  0
  -15.6030    5.3680  -25.9780 C   0  0  0  0  0  0  0  0  0  0  0  0
  -14.6750    6.0760  -25.5970 O   0  0  0  0  0  0  0  0  0  0  0  0
  -16.6920    5.8600  -26.5650 N   0  0  0  0  0  0  0  0  0  0  0  0
  -12.2590    4.2520  -24.4250 N   0  0  0  0  0  0  0  0  0  0  0  0
  -11.5150    4.6180  -23.2180 C   0  0  2  0  0  0  0  0  0  0  0  0
  -12.0960    5.8360  -22.5080 C   0  0  0  0  0  0  0  0  0  0  0  0
  -11.5740    6.2620  -21.4770 O   0  0  0  0  0  0  0  0  0  0  0  0
  -10.0430    4.8780  -23.5460 C   0  0  0  0  0  0  0  0  0  0  0  0
   -9.8410    6.1200  -24.4060 C   0  0  0  0  0  0  0  0  0  0  0  0
   -9.9880    7.2480  -23.9340 O   0  0  0  0  0  0  0  0  0  0  0  0
   -9.4850    5.9160  -25.6690 N   0  0  0  0  0  0  0  0  0  0  0  0
   -9.3860    3.3020  -18.2740 N   0  0  0  0  0  0  0  0  0  0  0  0
   -8.3220    2.5570  -18.9290 C   0  0  2  0  0  0  0  0  0  0  0  0
   -7.5770    3.4470  -19.9200 C   0  0  0  0  0  0  0  0  0  0  0  0
   -8.1930    4.2000  -20.6710 O   0  0  0  0  0  0  0  0  0  0  0  0
   -8.9000    1.3260  -19.6270 C   0  0  0  0  0  0  0  0  0  0  0  0
   -7.9560    0.6730  -20.6230 C   0  0  0  0  0  0  0  0  0  0  0  0
   -8.6930   -0.3240  -21.5010 C   0  0  0  0  0  0  0  0  0  0  0  0
   -9.5930    0.3210  -22.4560 N   0  0  0  0  0  0  0  0  0  0  0  0
   -9.2020    0.8330  -23.6210 C   0  0  0  0  0  0  0  0  0  0  0  0
   -7.9250    0.7940  -23.9700 N   0  0  0  0  0  0  0  0  0  0  0  0
  -10.0870    1.3890  -24.4370 N   0  0  0  0  0  0  0  0  0  0  0  0
   -6.2500    3.3680  -19.9110 N   0  0  0  0  0  0  0  0  0  0  0  0
   -5.4300    4.1990  -20.7950 C   0  0  2  0  0  0  0  0  0  0  0  0
   -5.6460    3.8250  -22.2560 C   0  0  0  0  0  0  0  0  0  0  0  0
   -5.9220    2.6680  -22.5720 O   0  0  0  0  0  0  0  0  0  0  0  0
   -3.9430    4.0670  -20.4420 C   0  0  0  0  0  0  0  0  0  0  0  0
   -3.5580    4.8410  -19.1880 C   0  0  0  0  0  0  0  0  0  0  0  0
   -4.4610    5.2500  -18.4270 O   0  0  0  0  0  0  0  0  0  0  0  0
   -2.3430    5.0340  -18.9630 O   0  0  0  0  0  0  0  0  0  0  0  0
   -5.5150    4.8050  -23.1460 N   0  0  0  0  0  0  0  0  0  0  0  0
   -5.6210    4.5540  -24.5690 C   0  0  0  0  0  0  0  0  0  0  0  0
   -4.4180    5.0940  -25.3150 C   0  0  0  0  0  0  0  0  0  0  0  0
   -3.3860    5.3830  -24.7150 O   0  0  0  0  0  0  0  0  0  0  0  0
   -4.5470    5.2370  -26.6300 N   0  0  0  0  0  0  0  0  0  0  0  0
   -3.4750    5.7900  -27.4310 C   0  0  0  0  0  0  0  0  0  0  0  0
   -3.0590    4.8300  -28.5190 C   0  0  0  0  0  0  0  0  0  0  0  0
   -3.2640    3.6250  -28.3990 O   0  0  0  0  0  0  0  0  0  0  0  0
   -2.4880    5.3700  -29.5900 N   0  0  0  0  0  0  0  0  0  0  0  0
   -1.9850    4.5500  -30.6850 C   0  0  2  0  0  0  0  0  0  0  0  0
   -0.6800    3.8600  -30.2800 C   0  0  0  0  0  0  0  0  0  0  0  0
    0.4050    4.2540  -30.7100 O   0  0  0  0  0  0  0  0  0  0  0  0
   -1.7820    5.3990  -31.9330 C   0  0  0  0  0  0  0  0  0  0  0  0
   -0.7960    2.8350  -29.4400 N   0  0  0  0  0  0  0  0  0  0  0  0
    0.3590    2.0770  -28.9680 C   0  0  2  0  0  0  0  0  0  0  0  0
    0.3280    0.6320  -29.4600 C   0  0  0  0  0  0  0  0  0  0  0  0
   -0.5390    0.2560  -30.2460 O   0  0  0  0  0  0  0  0  0  0  0  0
    0.4250    2.1060  -27.4400 C   0  0  0  0  0  0  0  0  0  0  0  0
   -0.7700    1.4270  -26.7900 C   0  0  0  0  0  0  0  0  0  0  0  0
   -1.7900    2.0630  -26.5190 O   0  0  0  0  0  0  0  0  0  0  0  0
   -0.6450    0.1290  -26.5270 N   0  0  0  0  0  0  0  0  0  0  0  0
  2  1  1  1
  3  2  1  0
  4  3  2  0
  5  2  1  0
  6  5  1  0
  7  6  2  0
  8  6  1  0
 10  9  1  1
 11 10  1  0
 12 11  2  0
 13 10  1  0
 14 13  1  0
 13 15  1  6
 16 11  1  0
 17 16  1  0
 18 17  1  0
 19 18  2  0
 17 20  1  1
 21 20  1  0
 22 21  2  0
 23 21  1  0
 24 18  1  0
 25 24  1  0
 26 25  1  0
 27 26  2  0
 25 28  1  6
 29 28  1  0
 30 29  2  0
 31 29  1  0
 33 32  1  6
 34 33  1  0
 35 34  2  0
 36 33  1  0
 37 36  1  0
 38 37  1  0
 39 38  1  0
 40 39  1  0
 41 40  1  0
 42 40  2  0
 43 34  1  0
 44 43  1  0
 45 44  1  0
 46 45  2  0
 44 47  1  1
 48 47  1  0
 49 48  2  0
 50 48  1  0
 51 45  1  0
 52 51  1  0
 53 52  1  0
 54 53  2  0
 55 53  1  0
 56 55  1  0
 57 56  1  0
 58 57  2  0
 59 57  1  0
 60 59  1  0
 61 60  1  0
 62 61  2  0
 60 63  1  6
 64 61  1  0
 65 64  1  0
 66 65  1  0
 67 66  2  0
 65 68  1  1
 69 68  1  0
 70 69  2  0
 71 69  1  0
M  END
$$$$
