
     RDKit          3D

127122  0  0  0  0  0  0  0  0999 V2000
  -13.1540    6.4060  -23.0830 N   0  0  0  0  0  0  0  0  0  0  0  0
  -13.8350    7.5470  -22.4900 C   0  0  2  0  0  0  0  0  0  0  0  0
  -15.0040    7.0750  -21.6390 C   0  0  0  0  0  0  0  0  0  0  0  0
  -15.5860    7.8540  -20.8900 O   0  0  0  0  0  0  0  0  0  0  0  0
  -14.3100    8.5120  -23.5650 C   0  0  0  0  0  0  0  0  0  0  0  0
  -15.3430    5.7960  -21.7590 N   0  0  0  0  0  0  0  0  0  0  0  0
  -16.4190    5.2230  -20.9610 C   0  0  2  0  0  0  0  0  0  0  0  0
  -15.8840    4.6680  -19.6520 C   0  0  0  0  0  0  0  0  0  0  0  0
  -14.9090    3.9230  -19.6420 O   0  0  0  0  0  0  0  0  0  0  0  0
  -17.1540    4.1230  -21.7330 C   0  0  0  0  0  0  0  0  0  0  0  0
  -17.8970    4.6070  -22.9720 C   0  0  0  0  0  0  0  0  0  0  0  0
  -18.6840    5.8720  -22.6770 C   0  0  0  0  0  0  0  0  0  0  0  0
  -19.5080    6.3270  -23.8760 C   0  0  0  0  0  0  0  0  0  0  0  0
  -19.9340    7.7520  -23.7110 N   0  0  0  0  0  0  0  0  0  0  0  0
  -16.5360    5.0360  -18.5520 N   0  0  0  0  0  0  0  0  0  0  0  0
  -16.1800    4.5530  -17.2170 C   0  0  2  0  0  0  0  0  0  0  0  0
  -16.2800    3.0260  -17.0870 C   0  0  0  0  0  0  0  0  0  0  0  0
  -17.1640    2.3910  -17.6750 O   0  0  0  0  0  0  0  0  0  0  0  0
  -17.0890    5.1940  -16.1290 C   0  0  2  0  0  0  0  0  0  0  0  0
  -17.1600    6.6110  -16.3250 O   0  0  0  0  0  0  0  0  0  0  0  0
  -16.5550    4.9070  -14.7260 C   0  0  0  0  0  0  0  0  0  0  0  0
   -4.0990   10.4040  -13.4450 N   0  0  0  0  0  0  0  0  0  0  0  0
   -3.1980   11.2050  -14.2770 C   0  0  2  0  0  0  0  0  0  0  0  0
   -3.2580   12.6970  -13.9680 C   0  0  0  0  0  0  0  0  0  0  0  0
   -2.3400   13.4440  -14.3080 O   0  0  0  0  0  0  0  0  0  0  0  0
   -3.5080   10.9840  -15.7630 C   0  0  0  0  0  0  0  0  0  0  0  0
   -3.0940    9.6980  -16.1830 O   0  0  0  0  0  0  0  0  0  0  0  0
   -4.3410   13.1320  -13.3320 N   0  0  0  0  0  0  0  0  0  0  0  0
   -4.5100   14.5340  -13.0020 C   0  0  0  0  0  0  0  0  0  0  0  0
   -5.9570   14.8490  -12.6980 C   0  0  0  0  0  0  0  0  0  0  0  0
   -6.7990   13.9510  -12.6800 O   0  0  0  0  0  0  0  0  0  0  0  0
   -6.2480   16.1270  -12.4620 N   0  0  0  0  0  0  0  0  0  0  0  0
   -7.5930   16.5520  -12.1200 C   0  0  0  0  0  0  0  0  0  0  0  0
   -7.6570   17.1320  -10.7200 C   0  0  0  0  0  0  0  0  0  0  0  0
   -6.6480   17.1860  -10.0270 O   0  0  0  0  0  0  0  0  0  0  0  0
   -8.8430   17.5690  -10.3090 N   0  0  0  0  0  0  0  0  0  0  0  0
   -9.0550   18.1220   -8.9670 C   0  0  2  0  0  0  0  0  0  0  0  0
   -8.8440   17.0640   -7.8770 C   0  0  0  0  0  0  0  0  0  0  0  0
   -8.8990   15.8660   -8.1550 O   0  0  0  0  0  0  0  0  0  0  0  0
  -10.4620   18.7150   -8.8560 C   0  0  0  0  0  0  0  0  0  0  0  0
  -10.7180   19.8080   -9.8790 C   0  0  0  0  0  0  0  0  0  0  0  0
   -9.7400   20.4340  -10.3360 O   0  0  0  0  0  0  0  0  0  0  0  0
  -11.8970   20.0440  -10.2240 O   0  0  0  0  0  0  0  0  0  0  0  0
   -8.6160   17.5070   -6.6420 N   0  0  0  0  0  0  0  0  0  0  0  0
   -8.3460   16.5870   -5.5270 C   0  0  2  0  0  0  0  0  0  0  0  0
   -9.4570   15.5750   -5.3100 C   0  0  0  0  0  0  0  0  0  0  0  0
   -9.2100   14.4710   -4.8290 O   0  0  0  0  0  0  0  0  0  0  0  0
   -8.1210   17.3540   -4.2250 C   0  0  0  0  0  0  0  0  0  0  0  0
   -6.7420   17.9600   -3.9850 C   0  0  0  0  0  0  0  0  0  0  0  0
   -6.6490   18.4400   -2.5450 C   0  0  0  0  0  0  0  0  0  0  0  0
   -5.6430   16.9600   -4.2930 C   0  0  0  0  0  0  0  0  0  0  0  0
  -10.9250   13.7990   -7.3410 N   0  0  0  0  0  0  0  0  0  0  0  0
  -10.7960   12.5910   -8.1620 C   0  0  2  0  0  0  0  0  0  0  0  0
   -9.3960   11.9680   -8.1060 C   0  0  0  0  0  0  0  0  0  0  0  0
   -9.2510   10.7610   -8.3000 O   0  0  0  0  0  0  0  0  0  0  0  0
  -11.1790   12.8550   -9.6510 C   0  0  2  0  0  0  0  0  0  0  0  0
  -10.2540   13.8730  -10.3020 C   0  0  0  0  0  0  0  0  0  0  0  0
  -12.6230   13.3230   -9.7700 C   0  0  0  0  0  0  0  0  0  0  0  0
  -10.7130   14.2610  -11.6810 C   0  0  0  0  0  0  0  0  0  0  0  0
  -19.7560   19.9780   -5.6570 N   0  0  0  0  0  0  0  0  0  0  0  0
  -19.9950   18.8850   -6.6010 C   0  0  2  0  0  0  0  0  0  0  0  0
  -21.2600   19.1010   -7.4200 C   0  0  0  0  0  0  0  0  0  0  0  0
  -21.6870   18.2160   -8.1630 O   0  0  0  0  0  0  0  0  0  0  0  0
  -20.0660   17.5390   -5.8710 C   0  0  0  0  0  0  0  0  0  0  0  0
  -21.4000   17.2080   -5.2530 C   0  0  0  0  0  0  0  0  0  0  0  0
  -21.8960   17.6820   -4.0760 C   0  0  0  0  0  0  0  0  0  0  0  0
  -22.3880   16.3020   -5.7690 C   0  0  0  0  0  0  0  0  0  0  0  0
  -23.1360   17.1380   -3.8310 N   0  0  0  0  0  0  0  0  0  0  0  0
  -23.4590   16.2870   -4.8540 C   0  0  0  0  0  0  0  0  0  0  0  0
  -22.4720   15.5070   -6.9160 C   0  0  0  0  0  0  0  0  0  0  0  0
  -24.5990   15.5090   -5.0490 C   0  0  0  0  0  0  0  0  0  0  0  0
  -23.6040   14.7360   -7.1080 C   0  0  0  0  0  0  0  0  0  0  0  0
  -24.6510   14.7410   -6.1790 C   0  0  0  0  0  0  0  0  0  0  0  0
  -21.8500   20.2860   -7.2840 N   0  0  0  0  0  0  0  0  0  0  0  0
  -22.9400   20.7120   -8.1500 C   0  0  2  0  0  0  0  0  0  0  0  0
  -22.3550   21.3120   -9.4310 C   0  0  0  0  0  0  0  0  0  0  0  0
  -23.0560   21.9720  -10.1970 O   0  0  0  0  0  0  0  0  0  0  0  0
  -23.8470   21.7300   -7.4440 C   0  0  0  0  0  0  0  0  0  0  0  0
  -24.7840   21.1560   -6.3860 C   0  0  0  0  0  0  0  0  0  0  0  0
  -24.0750   20.8040   -5.0890 C   0  0  0  0  0  0  0  0  0  0  0  0
  -22.8850   21.0660   -4.9150 O   0  0  0  0  0  0  0  0  0  0  0  0
  -24.8120   20.2010   -4.1710 N   0  0  0  0  0  0  0  0  0  0  0  0
  -21.0630   21.0760   -9.6530 N   0  0  0  0  0  0  0  0  0  0  0  0
  -20.3670   21.5930  -10.8180 C   0  0  0  0  0  0  0  0  0  0  0  0
  -20.2960   23.1090  -10.8360 C   0  0  0  0  0  0  0  0  0  0  0  0
  -20.2120   23.7280  -11.8960 O   0  0  0  0  0  0  0  0  0  0  0  0
  -20.3280   23.7180   -9.6570 N   0  0  0  0  0  0  0  0  0  0  0  0
  -20.3310   25.1730   -9.5690 C   0  0  2  0  0  0  0  0  0  0  0  0
  -18.9380   25.7220   -9.2300 C   0  0  0  0  0  0  0  0  0  0  0  0
  -18.1130   25.9040  -10.1270 O   0  0  0  0  0  0  0  0  0  0  0  0
  -21.3690   25.6600   -8.5350 C   0  0  2  0  0  0  0  0  0  0  0  0
  -21.1730   24.9710   -7.2970 O   0  0  0  0  0  0  0  0  0  0  0  0
  -22.7810   25.3730   -9.0270 C   0  0  0  0  0  0  0  0  0  0  0  0
  -10.6110    3.9460  -15.0400 N   0  0  0  0  0  0  0  0  0  0  0  0
  -10.4670    4.4190  -16.4110 C   0  0  2  0  0  0  0  0  0  0  0  0
   -9.2590    3.7130  -17.0200 C   0  0  0  0  0  0  0  0  0  0  0  0
   -8.2340    3.5240  -16.3580 O   0  0  0  0  0  0  0  0  0  0  0  0
  -10.2890    5.9540  -16.4960 C   0  0  2  0  0  0  0  0  0  0  0  0
   -9.1060    6.3430  -15.7890 O   0  0  0  0  0  0  0  0  0  0  0  0
  -11.4830    6.6650  -15.8860 C   0  0  0  0  0  0  0  0  0  0  0  0
   -6.6180    3.1550  -13.9900 N   0  0  0  0  0  0  0  0  0  0  0  0
   -6.4370    4.1820  -12.9700 C   0  0  2  0  0  0  0  0  0  0  0  0
   -7.7310    4.3890  -12.2010 C   0  0  0  0  0  0  0  0  0  0  0  0
   -8.8120    4.2520  -12.7670 O   0  0  0  0  0  0  0  0  0  0  0  0
   -5.9810    5.4990  -13.6120 C   0  0  0  0  0  0  0  0  0  0  0  0
   -4.6990    5.3640  -14.4150 C   0  0  0  0  0  0  0  0  0  0  0  0
   -4.3330    6.6520  -15.1340 C   0  0  0  0  0  0  0  0  0  0  0  0
   -3.2450    6.4270  -16.0800 N   0  0  0  0  0  0  0  0  0  0  0  0
   -1.9600    6.5860  -15.7910 C   0  0  0  0  0  0  0  0  0  0  0  0
   -1.5940    6.9860  -14.5850 N   0  0  0  0  0  0  0  0  0  0  0  0
   -1.0390    6.3530  -16.7160 N   0  0  0  0  0  0  0  0  0  0  0  0
  -13.7900    8.1770  -11.1120 N   0  0  0  0  0  0  0  0  0  0  0  0
  -14.7440    8.9210  -10.3120 C   0  0  0  0  0  0  0  0  0  0  0  0
  -15.2170   10.1810  -11.0040 C   0  0  0  0  0  0  0  0  0  0  0  0
  -15.2250   10.2550  -12.2330 O   0  0  0  0  0  0  0  0  0  0  0  0
  -15.6210   11.1710  -10.2150 N   0  0  0  0  0  0  0  0  0  0  0  0
  -16.0780   12.4400  -10.7560 C   0  0  0  0  0  0  0  0  0  0  0  0
  -17.5720   12.4970  -11.0220 C   0  0  0  0  0  0  0  0  0  0  0  0
  -18.2790   13.3310  -10.4530 O   0  0  0  0  0  0  0  0  0  0  0  0
  -18.0540   11.6190  -11.8980 N   0  0  0  0  0  0  0  0  0  0  0  0
  -19.4790   11.5510  -12.1950 C   0  0  2  0  0  0  0  0  0  0  0  0
  -20.1830   10.6410  -11.2000 C   0  0  0  0  0  0  0  0  0  0  0  0
  -20.1320    9.4190  -11.3130 O   0  0  0  0  0  0  0  0  0  0  0  0
  -19.7160   11.0630  -13.6260 C   0  0  0  0  0  0  0  0  0  0  0  0
  -21.1300   11.3280  -14.1060 C   0  0  0  0  0  0  0  0  0  0  0  0
  -22.0480   11.4970  -13.3050 O   0  0  0  0  0  0  0  0  0  0  0  0
  -21.3110   11.3640  -15.4240 N   0  0  0  0  0  0  0  0  0  0  0  0
  2  1  1  0
  3  2  1  0
  4  3  2  0
  2  5  1  6
  6  3  1  0
  7  6  1  0
  8  7  1  0
  9  8  2  0
  7 10  1  6
 11 10  1  0
 12 11  1  0
 13 12  1  0
 14 13  1  0
 15  8  1  0
 16 15  1  6
 17 16  1  0
 18 17  2  0
 19 16  1  0
 20 19  1  0
 19 21  1  1
 23 22  1  1
 24 23  1  0
 25 24  2  0
 26 23  1  0
 27 26  1  0
 28 24  1  0
 29 28  1  0
 30 29  1  0
 31 30  2  0
 32 30  1  0
 33 32  1  0
 34 33  1  0
 35 34  2  0
 36 34  1  0
 37 36  1  0
 38 37  1  0
 39 38  2  0
 37 40  1  6
 41 40  1  0
 42 41  2  0
 43 41  1  0
 44 38  1  0
 45 44  1  0
 46 45  1  0
 47 46  2  0
 45 48  1  1
 49 48  1  0
 50 49  1  0
 51 49  1  0
 53 52  1  1
 54 53  1  0
 55 54  2  0
 56 53  1  0
 57 56  1  0
 56 58  1  1
 59 57  1  0
 61 60  1  1
 62 61  1  0
 63 62  2  0
 64 61  1  0
 65 64  1  0
 66 65  2  0
 67 65  1  0
 68 66  1  0
 69 67  2  0
 69 68  1  0
 70 67  1  0
 71 69  1  0
 72 70  2  0
 73 72  1  0
 73 71  2  0
 74 62  1  0
 75 74  1  0
 76 75  1  0
 77 76  2  0
 75 78  1  1
 79 78  1  0
 80 79  1  0
 81 80  2  0
 82 80  1  0
 83 76  1  0
 84 83  1  0
 85 84  1  0
 86 85  2  0
 87 85  1  0
 88 87  1  1
 89 88  1  0
 90 89  2  0
 91 88  1  0
 92 91  1  0
 91 93  1  6
 95 94  1  1
 96 95  1  0
 97 96  2  0
 98 95  1  0
 99 98  1  0
 98100  1  1
102101  1  6
103102  1  0
104103  2  0
105102  1  0
106105  1  0
107106  1  0
108107  1  0
109108  1  0
110109  1  0
111109  2  0
113112  1  0
114113  1  0
115114  2  0
116114  1  0
117116  1  0
118117  1  0
119118  2  0
120118  1  0
121120  1  0
122121  1  0
123122  2  0
121124  1  6
125124  1  0
126125  2  0
127125  1  0
M  END
$$$$
