
     RDKit          3D

170164  0  0  0  0  0  0  0  0999 V2000
   15.8350   84.3360    4.5790 N   0  0  0  0  0  0  0  0  0  0  0  0
   15.0430   84.1040    5.7750 C   0  0  2  0  0  0  0  0  0  0  0  0
   14.0890   82.9330    5.5500 C   0  0  0  0  0  0  0  0  0  0  0  0
   13.7750   82.6010    4.4080 O   0  0  0  0  0  0  0  0  0  0  0  0
   14.2250   85.3340    6.1570 C   0  0  2  0  0  0  0  0  0  0  0  0
   13.3310   85.6550    5.0820 O   0  0  0  0  0  0  0  0  0  0  0  0
   15.1420   86.5160    6.4220 C   0  0  0  0  0  0  0  0  0  0  0  0
   12.3480   79.8570   24.3290 N   0  0  0  0  0  0  0  0  0  0  0  0
   11.5750   80.2400   23.1430 C   0  0  2  0  0  0  0  0  0  0  0  0
   12.1630   81.4220   22.3650 C   0  0  0  0  0  0  0  0  0  0  0  0
   11.6740   81.7650   21.2820 O   0  0  0  0  0  0  0  0  0  0  0  0
   10.1190   80.5470   23.5210 C   0  0  0  0  0  0  0  0  0  0  0  0
    9.9750   81.7840   24.3970 C   0  0  0  0  0  0  0  0  0  0  0  0
   10.3610   82.8870   24.0100 O   0  0  0  0  0  0  0  0  0  0  0  0
    9.3780   81.6080   25.5700 N   0  0  0  0  0  0  0  0  0  0  0  0
   13.2070   82.0380   22.9170 N   0  0  0  0  0  0  0  0  0  0  0  0
   13.8680   83.1610   22.2590 C   0  0  2  0  0  0  0  0  0  0  0  0
   15.0230   82.6920   21.3910 C   0  0  0  0  0  0  0  0  0  0  0  0
   15.5890   83.4730   20.6230 O   0  0  0  0  0  0  0  0  0  0  0  0
   14.3660   84.1630   23.2790 C   0  0  0  0  0  0  0  0  0  0  0  0
   15.3880   81.4240   21.5270 N   0  0  0  0  0  0  0  0  0  0  0  0
   16.4950   80.8910   20.7530 C   0  0  2  0  0  0  0  0  0  0  0  0
   15.9710   80.3010   19.4530 C   0  0  0  0  0  0  0  0  0  0  0  0
   14.9710   79.5860   19.4450 O   0  0  0  0  0  0  0  0  0  0  0  0
   17.2690   79.8440   21.5540 C   0  0  0  0  0  0  0  0  0  0  0  0
   17.9290   80.3970   22.8190 C   0  0  0  0  0  0  0  0  0  0  0  0
   18.7210   81.6550   22.5090 C   0  0  0  0  0  0  0  0  0  0  0  0
   19.3770   82.2290   23.7460 C   0  0  0  0  0  0  0  0  0  0  0  0
   19.9290   83.5860   23.4680 N   0  0  0  0  0  0  0  0  0  0  0  0
   16.6450   80.6230   18.3570 N   0  0  0  0  0  0  0  0  0  0  0  0
   16.2510   80.1480   17.0370 C   0  0  2  0  0  0  0  0  0  0  0  0
   16.4930   78.6510   16.8920 C   0  0  0  0  0  0  0  0  0  0  0  0
   17.4850   78.1240   17.3930 O   0  0  0  0  0  0  0  0  0  0  0  0
   17.0180   80.8950   15.9230 C   0  0  2  0  0  0  0  0  0  0  0  0
   16.8120   82.3060   16.0630 O   0  0  0  0  0  0  0  0  0  0  0  0
   16.5440   80.4500   14.5340 C   0  0  0  0  0  0  0  0  0  0  0  0
    4.2190   85.4710   13.4530 N   0  0  0  0  0  0  0  0  0  0  0  0
    3.3050   86.2870   14.2460 C   0  0  2  0  0  0  0  0  0  0  0  0
    3.3370   87.7650   13.8670 C   0  0  0  0  0  0  0  0  0  0  0  0
    2.3410   88.4670   14.0240 O   0  0  0  0  0  0  0  0  0  0  0  0
    3.6160   86.1310   15.7380 C   0  0  0  0  0  0  0  0  0  0  0  0
    3.0880   84.9210   16.2420 O   0  0  0  0  0  0  0  0  0  0  0  0
    4.4790   88.2380   13.3790 N   0  0  0  0  0  0  0  0  0  0  0  0
    4.6010   89.6210   12.9560 C   0  0  0  0  0  0  0  0  0  0  0  0
    6.0180   89.9700   12.5520 C   0  0  0  0  0  0  0  0  0  0  0  0
    6.8690   89.0890   12.4410 O   0  0  0  0  0  0  0  0  0  0  0  0
    6.2750   91.2570   12.3350 N   0  0  0  0  0  0  0  0  0  0  0  0
    7.6010   91.7140   11.9460 C   0  0  0  0  0  0  0  0  0  0  0  0
    7.6240   92.2990   10.5460 C   0  0  0  0  0  0  0  0  0  0  0  0
    6.5860   92.3700    9.8880 O   0  0  0  0  0  0  0  0  0  0  0  0
    8.8010   92.7190   10.0910 N   0  0  0  0  0  0  0  0  0  0  0  0
    8.9490   93.2800    8.7470 C   0  0  2  0  0  0  0  0  0  0  0  0
    8.7950   92.1950    7.6780 C   0  0  0  0  0  0  0  0  0  0  0  0
    8.8990   91.0060    7.9800 O   0  0  0  0  0  0  0  0  0  0  0  0
   10.3070   93.9730    8.6020 C   0  0  0  0  0  0  0  0  0  0  0  0
   10.5290   95.0430    9.6490 C   0  0  0  0  0  0  0  0  0  0  0  0
    9.5340   95.6080   10.1480 O   0  0  0  0  0  0  0  0  0  0  0  0
   11.7030   95.3230    9.9720 O   0  0  0  0  0  0  0  0  0  0  0  0
   10.6800   91.1570    5.4030 N   0  0  0  0  0  0  0  0  0  0  0  0
   11.8610   90.3460    5.1760 C   0  0  2  0  0  0  0  0  0  0  0  0
   11.8240   89.0390    5.9670 C   0  0  0  0  0  0  0  0  0  0  0  0
   12.4180   88.0470    5.5440 O   0  0  0  0  0  0  0  0  0  0  0  0
   13.1190   91.1420    5.5170 C   0  0  0  0  0  0  0  0  0  0  0  0
   13.4640   92.2270    4.4870 C   0  0  0  0  0  0  0  0  0  0  0  0
   12.5850   93.4630    4.5980 C   0  0  0  0  0  0  0  0  0  0  0  0
   12.0170   93.7030    5.6860 O   0  0  0  0  0  0  0  0  0  0  0  0
   12.4660   94.2020    3.5960 O   0  0  0  0  0  0  0  0  0  0  0  0
   11.1170   89.0330    7.1000 N   0  0  0  0  0  0  0  0  0  0  0  0
   11.0280   87.8260    7.9250 C   0  0  2  0  0  0  0  0  0  0  0  0
    9.6470   87.1620    7.9240 C   0  0  0  0  0  0  0  0  0  0  0  0
    9.5450   85.9540    8.1330 O   0  0  0  0  0  0  0  0  0  0  0  0
   11.4190   88.1020    9.3980 C   0  0  2  0  0  0  0  0  0  0  0  0
   10.4900   89.1290   10.0330 C   0  0  0  0  0  0  0  0  0  0  0  0
   12.8670   88.5540    9.5030 C   0  0  0  0  0  0  0  0  0  0  0  0
   10.7540   89.3110   11.5190 C   0  0  0  0  0  0  0  0  0  0  0  0
   12.4600   85.6630    2.2380 N   0  0  0  0  0  0  0  0  0  0  0  0
   13.2030   86.7410    1.6090 C   0  0  2  0  0  0  0  0  0  0  0  0
   14.5220   86.1900    1.0990 C   0  0  0  0  0  0  0  0  0  0  0  0
   15.1870   85.4180    1.7910 O   0  0  0  0  0  0  0  0  0  0  0  0
   13.4210   87.8750    2.6160 C   0  0  0  0  0  0  0  0  0  0  0  0
   14.1950   89.0420    2.0880 C   0  0  0  0  0  0  0  0  0  0  0  0
   13.8340   89.7260    0.9430 N   0  0  0  0  0  0  0  0  0  0  0  0
   15.2910   89.6740    2.5700 C   0  0  0  0  0  0  0  0  0  0  0  0
   14.6860   90.7120    0.7370 C   0  0  0  0  0  0  0  0  0  0  0  0
   15.5820   90.7030    1.7110 N   0  0  0  0  0  0  0  0  0  0  0  0
   14.2800   96.6180    3.4480 N   0  0  0  0  0  0  0  0  0  0  0  0
   15.0370   96.8550    4.6710 C   0  0  2  0  0  0  0  0  0  0  0  0
   16.3670   96.1110    4.6000 C   0  0  0  0  0  0  0  0  0  0  0  0
   16.3940   94.9070    4.3520 O   0  0  0  0  0  0  0  0  0  0  0  0
   14.2450   96.4190    5.9050 C   0  0  0  0  0  0  0  0  0  0  0  0
   12.9850   97.2300    6.1040 C   0  0  0  0  0  0  0  0  0  0  0  0
   13.0420   98.4370    6.3460 O   0  0  0  0  0  0  0  0  0  0  0  0
   11.8370   96.5680    6.0270 N   0  0  0  0  0  0  0  0  0  0  0  0
   17.4660   96.8330    4.8010 N   0  0  0  0  0  0  0  0  0  0  0  0
   18.7970   96.2440    4.6910 C   0  0  2  0  0  0  0  0  0  0  0  0
   19.1130   95.3210    5.8600 C   0  0  0  0  0  0  0  0  0  0  0  0
   18.9940   95.7140    7.0200 O   0  0  0  0  0  0  0  0  0  0  0  0
   19.8570   97.3370    4.5980 C   0  0  0  0  0  0  0  0  0  0  0  0
   20.0640   97.8660    3.1880 C   0  0  0  0  0  0  0  0  0  0  0  0
   21.0840   99.3430    3.1760 S   0  0  0  0  0  0  0  0  0  0  0  0
   19.9470  100.5240    3.8910 C   0  0  0  0  0  0  0  0  0  0  0  0
   19.5250   94.0970    5.5460 N   0  0  0  0  0  0  0  0  0  0  0  0
   19.8490   93.1210    6.5750 C   0  0  2  0  0  0  0  0  0  0  0  0
   21.1830   93.4370    7.2220 C   0  0  0  0  0  0  0  0  0  0  0  0
   21.4750   92.9400    8.3060 O   0  0  0  0  0  0  0  0  0  0  0  0
   19.8720   91.7020    6.0020 C   0  0  0  0  0  0  0  0  0  0  0  0
   20.9900   91.4510    5.0350 C   0  0  0  0  0  0  0  0  0  0  0  0
   20.9320   91.5350    3.6690 C   0  0  0  0  0  0  0  0  0  0  0  0
   22.3320   91.0660    5.3550 C   0  0  0  0  0  0  0  0  0  0  0  0
   22.1570   91.2310    3.1220 N   0  0  0  0  0  0  0  0  0  0  0  0
   23.0320   90.9390    4.1340 C   0  0  0  0  0  0  0  0  0  0  0  0
   23.0100   90.8140    6.5520 C   0  0  0  0  0  0  0  0  0  0  0  0
   24.3760   90.5740    4.0800 C   0  0  0  0  0  0  0  0  0  0  0  0
   24.3450   90.4550    6.4970 C   0  0  0  0  0  0  0  0  0  0  0  0
   25.0140   90.3360    5.2670 C   0  0  0  0  0  0  0  0  0  0  0  0
   21.9970   94.2530    6.5580 N   0  0  0  0  0  0  0  0  0  0  0  0
   23.2640   94.6800    7.1440 C   0  0  2  0  0  0  0  0  0  0  0  0
   23.0370   95.4540    8.4470 C   0  0  0  0  0  0  0  0  0  0  0  0
   23.9230   95.5260    9.2980 O   0  0  0  0  0  0  0  0  0  0  0  0
   24.0630   95.5280    6.1610 C   0  0  0  0  0  0  0  0  0  0  0  0
   24.3780   94.8310    4.8490 C   0  0  0  0  0  0  0  0  0  0  0  0
   23.3350   95.1010    3.7780 C   0  0  0  0  0  0  0  0  0  0  0  0
   22.1510   94.8080    3.9570 O   0  0  0  0  0  0  0  0  0  0  0  0
   23.7710   95.6710    2.6590 N   0  0  0  0  0  0  0  0  0  0  0  0
   21.8450   96.0260    8.5990 N   0  0  0  0  0  0  0  0  0  0  0  0
   21.4480   96.6290    9.8570 C   0  0  0  0  0  0  0  0  0  0  0  0
   21.5650   98.1360    9.8480 C   0  0  0  0  0  0  0  0  0  0  0  0
   22.2590   98.7240   10.6770 O   0  0  0  0  0  0  0  0  0  0  0  0
   10.9360   79.3520   14.9310 N   0  0  0  0  0  0  0  0  0  0  0  0
   10.7850   79.7320   16.3220 C   0  0  2  0  0  0  0  0  0  0  0  0
    9.6430   78.9090   16.8970 C   0  0  0  0  0  0  0  0  0  0  0  0
    8.7460   78.4810   16.1680 O   0  0  0  0  0  0  0  0  0  0  0  0
   10.4830   81.2280   16.5020 C   0  0  2  0  0  0  0  0  0  0  0  0
    9.2050   81.5290   15.9290 O   0  0  0  0  0  0  0  0  0  0  0  0
   11.5580   82.0760   15.8500 C   0  0  0  0  0  0  0  0  0  0  0  0
    6.8480   78.4060   13.9020 N   0  0  0  0  0  0  0  0  0  0  0  0
    6.6690   79.4270   12.8760 C   0  0  2  0  0  0  0  0  0  0  0  0
    7.9810   79.6600   12.1470 C   0  0  0  0  0  0  0  0  0  0  0  0
    9.0440   79.5650   12.7520 O   0  0  0  0  0  0  0  0  0  0  0  0
    6.1720   80.7340   13.5000 C   0  0  0  0  0  0  0  0  0  0  0  0
    4.8610   80.5950   14.2360 C   0  0  0  0  0  0  0  0  0  0  0  0
    4.5770   81.7960   15.1210 C   0  0  0  0  0  0  0  0  0  0  0  0
    3.5000   81.5100   16.0620 N   0  0  0  0  0  0  0  0  0  0  0  0
    2.2120   81.7010   15.8020 C   0  0  0  0  0  0  0  0  0  0  0  0
    1.8320   82.1880   14.6300 N   0  0  0  0  0  0  0  0  0  0  0  0
    1.3030   81.4050   16.7150 N   0  0  0  0  0  0  0  0  0  0  0  0
   14.1380   83.3440   11.2100 N   0  0  0  0  0  0  0  0  0  0  0  0
   15.2490   83.9490   10.5010 C   0  0  0  0  0  0  0  0  0  0  0  0
   15.3450   85.4330   10.7750 C   0  0  0  0  0  0  0  0  0  0  0  0
   14.6220   85.9690   11.6150 O   0  0  0  0  0  0  0  0  0  0  0  0
   16.2340   86.1060   10.0580 N   0  0  0  0  0  0  0  0  0  0  0  0
   16.4670   87.5160   10.2990 C   0  0  0  0  0  0  0  0  0  0  0  0
   17.8460   87.7330   10.8840 C   0  0  0  0  0  0  0  0  0  0  0  0
   18.5000   88.7320   10.5960 O   0  0  0  0  0  0  0  0  0  0  0  0
   18.2900   86.7950   11.7130 N   0  0  0  0  0  0  0  0  0  0  0  0
   19.6620   86.8140   12.1960 C   0  0  2  0  0  0  0  0  0  0  0  0
   20.5350   86.0260   11.2320 C   0  0  0  0  0  0  0  0  0  0  0  0
   20.6710   84.8100   11.3510 O   0  0  0  0  0  0  0  0  0  0  0  0
   19.7550   86.2430   13.6120 C   0  0  0  0  0  0  0  0  0  0  0  0
   21.1250   86.4440   14.2350 C   0  0  0  0  0  0  0  0  0  0  0  0
   22.1070   86.7050   13.5400 O   0  0  0  0  0  0  0  0  0  0  0  0
   21.1980   86.3180   15.5580 N   0  0  0  0  0  0  0  0  0  0  0  0
   21.1320   86.7340   10.2800 N   0  0  0  0  0  0  0  0  0  0  0  0
   21.8360   86.1020    9.1720 C   0  0  2  0  0  0  0  0  0  0  0  0
   23.0730   85.3520    9.6560 C   0  0  0  0  0  0  0  0  0  0  0  0
   23.6080   84.4980    8.9500 O   0  0  0  0  0  0  0  0  0  0  0  0
   22.2260   87.1450    8.1030 C   0  0  2  0  0  0  0  0  0  0  0  0
   21.0130   88.0130    7.7650 C   0  0  0  0  0  0  0  0  0  0  0  0
   22.7320   86.4740    6.8520 C   0  0  0  0  0  0  0  0  0  0  0  0
   19.8130   87.2180    7.2720 C   0  0  0  0  0  0  0  0  0  0  0  0
  2  1  1  6
  3  2  1  0
  4  3  2  0
  5  2  1  0
  6  5  1  0
  5  7  1  6
  9  8  1  1
 10  9  1  0
 11 10  2  0
 12  9  1  0
 13 12  1  0
 14 13  2  0
 15 13  1  0
 16 10  1  0
 17 16  1  0
 18 17  1  0
 19 18  2  0
 17 20  1  1
 21 18  1  0
 22 21  1  0
 23 22  1  0
 24 23  2  0
 22 25  1  1
 26 25  1  0
 27 26  1  0
 28 27  1  0
 29 28  1  0
 30 23  1  0
 31 30  1  1
 32 31  1  0
 33 32  2  0
 34 31  1  0
 35 34  1  0
 34 36  1  6
 38 37  1  6
 39 38  1  0
 40 39  2  0
 41 38  1  0
 42 41  1  0
 43 39  1  0
 44 43  1  0
 45 44  1  0
 46 45  2  0
 47 45  1  0
 48 47  1  0
 49 48  1  0
 50 49  2  0
 51 49  1  0
 52 51  1  0
 53 52  1  0
 54 53  2  0
 52 55  1  1
 56 55  1  0
 57 56  2  0
 58 56  1  0
 60 59  1  1
 61 60  1  0
 62 61  2  0
 63 60  1  0
 64 63  1  0
 65 64  1  0
 66 65  2  0
 67 65  1  0
 68 61  1  0
 69 68  1  6
 70 69  1  0
 71 70  2  0
 72 69  1  0
 73 72  1  0
 72 74  1  6
 75 73  1  0
 77 76  1  1
 78 77  1  0
 79 78  2  0
 80 77  1  0
 81 80  1  0
 82 81  1  0
 83 81  2  0
 84 82  2  0
 85 84  1  0
 85 83  1  0
 87 86  1  6
 88 87  1  0
 89 88  2  0
 90 87  1  0
 91 90  1  0
 92 91  2  0
 93 91  1  0
 94 88  1  0
 95 94  1  0
 96 95  1  0
 97 96  2  0
 95 98  1  1
 99 98  1  0
100 99  1  0
101100  1  0
102 96  1  0
103102  1  0
104103  1  0
105104  2  0
103106  1  6
107106  1  0
108107  2  0
109107  1  0
110108  1  0
111110  1  0
111109  2  0
112109  1  0
113111  1  0
114112  2  0
115113  2  0
115114  1  0
116104  1  0
117116  1  0
118117  1  0
119118  2  0
117120  1  6
121120  1  0
122121  1  0
123122  2  0
124122  1  0
125118  1  0
126125  1  0
127126  1  0
128127  2  0
130129  1  6
131130  1  0
132131  2  0
133130  1  0
134133  1  0
133135  1  6
137136  1  1
138137  1  0
139138  2  0
140137  1  0
141140  1  0
142141  1  0
143142  1  0
144143  1  0
145144  1  0
146144  2  0
148147  1  0
149148  1  0
150149  2  0
151149  1  0
152151  1  0
153152  1  0
154153  2  0
155153  1  0
156155  1  0
157156  1  0
158157  2  0
156159  1  1
160159  1  0
161160  2  0
162160  1  0
163157  1  0
164163  1  1
165164  1  0
166165  2  0
167164  1  0
168167  1  0
167169  1  6
170168  1  0
M  END
$$$$
