
     RDKit          3D

 71 68  0  0  0  0  0  0  0  0999 V2000
   19.2560   76.1010   22.8490 N   0  0  0  0  0  0  0  0  0  0  0  0
   18.4430   75.6550   23.9690 C   0  0  2  0  0  0  0  0  0  0  0  0
   16.9710   75.5730   23.5690 C   0  0  0  0  0  0  0  0  0  0  0  0
   16.3040   76.6000   23.4440 O   0  0  0  0  0  0  0  0  0  0  0  0
   18.6160   76.6060   25.1450 C   0  0  0  0  0  0  0  0  0  0  0  0
   19.1480   75.9210   26.3830 C   0  0  0  0  0  0  0  0  0  0  0  0
   18.6020   74.9180   26.8400 O   0  0  0  0  0  0  0  0  0  0  0  0
   20.2230   76.4640   26.9330 N   0  0  0  0  0  0  0  0  0  0  0  0
   14.3820   74.7030   25.1260 N   0  0  0  0  0  0  0  0  0  0  0  0
   13.4030   75.1170   26.1180 C   0  0  2  0  0  0  0  0  0  0  0  0
   13.3170   76.6420   26.2090 C   0  0  0  0  0  0  0  0  0  0  0  0
   12.4410   77.1840   26.8750 O   0  0  0  0  0  0  0  0  0  0  0  0
   13.7290   74.5110   27.4850 C   0  0  2  0  0  0  0  0  0  0  0  0
   14.9900   75.0100   27.9430 O   0  0  0  0  0  0  0  0  0  0  0  0
   13.8230   73.0090   27.3500 C   0  0  0  0  0  0  0  0  0  0  0  0
   14.2190   77.3240   25.5120 N   0  0  0  0  0  0  0  0  0  0  0  0
   14.2360   78.7810   25.4630 C   0  0  2  0  0  0  0  0  0  0  0  0
   13.5530   79.3000   24.1990 C   0  0  0  0  0  0  0  0  0  0  0  0
   14.1270   79.2150   23.1150 O   0  0  0  0  0  0  0  0  0  0  0  0
   15.6810   79.2890   25.5260 C   0  0  0  0  0  0  0  0  0  0  0  0
   15.7720   80.7820   25.8010 C   0  0  0  0  0  0  0  0  0  0  0  0
   14.8550   81.5410   25.4890 O   0  0  0  0  0  0  0  0  0  0  0  0
   16.8870   81.2080   26.3880 N   0  0  0  0  0  0  0  0  0  0  0  0
   12.3480   79.8570   24.3290 N   0  0  0  0  0  0  0  0  0  0  0  0
   11.5750   80.2400   23.1430 C   0  0  2  0  0  0  0  0  0  0  0  0
   12.1630   81.4220   22.3650 C   0  0  0  0  0  0  0  0  0  0  0  0
   11.6740   81.7650   21.2820 O   0  0  0  0  0  0  0  0  0  0  0  0
   10.1190   80.5470   23.5210 C   0  0  0  0  0  0  0  0  0  0  0  0
    9.9750   81.7840   24.3970 C   0  0  0  0  0  0  0  0  0  0  0  0
   10.3610   82.8870   24.0100 O   0  0  0  0  0  0  0  0  0  0  0  0
    9.3780   81.6080   25.5700 N   0  0  0  0  0  0  0  0  0  0  0  0
    9.6830   78.6870   18.2030 N   0  0  0  0  0  0  0  0  0  0  0  0
    8.6840   77.8710   18.8710 C   0  0  2  0  0  0  0  0  0  0  0  0
    7.8680   78.7490   19.8120 C   0  0  0  0  0  0  0  0  0  0  0  0
    8.4310   79.5550   20.5450 O   0  0  0  0  0  0  0  0  0  0  0  0
    9.3750   76.7310   19.6240 C   0  0  0  0  0  0  0  0  0  0  0  0
    8.4610   75.6430   20.1520 C   0  0  0  0  0  0  0  0  0  0  0  0
    8.2600   75.7720   21.6280 C   0  0  0  0  0  0  0  0  0  0  0  0
    9.5090   75.9040   22.3710 N   0  0  0  0  0  0  0  0  0  0  0  0
    9.5500   76.2720   23.6460 C   0  0  0  0  0  0  0  0  0  0  0  0
    8.4160   76.5340   24.2750 N   0  0  0  0  0  0  0  0  0  0  0  0
   10.7080   76.3820   24.2900 N   0  0  0  0  0  0  0  0  0  0  0  0
    6.5460   78.6080   19.7800 N   0  0  0  0  0  0  0  0  0  0  0  0
    5.6680   79.3940   20.6510 C   0  0  2  0  0  0  0  0  0  0  0  0
    5.8450   79.0370   22.1270 C   0  0  0  0  0  0  0  0  0  0  0  0
    6.0050   77.8670   22.4710 O   0  0  0  0  0  0  0  0  0  0  0  0
    4.2000   79.1930   20.2550 C   0  0  0  0  0  0  0  0  0  0  0  0
    3.7430   80.1480   19.1680 C   0  0  0  0  0  0  0  0  0  0  0  0
    4.5990   80.6720   18.4300 O   0  0  0  0  0  0  0  0  0  0  0  0
    2.5210   80.3760   19.0590 O   0  0  0  0  0  0  0  0  0  0  0  0
    5.7970   80.0420   23.0000 N   0  0  0  0  0  0  0  0  0  0  0  0
    5.8840   79.8060   24.4330 C   0  0  0  0  0  0  0  0  0  0  0  0
    4.6880   80.3730   25.1710 C   0  0  0  0  0  0  0  0  0  0  0  0
    3.6850   80.7350   24.5580 O   0  0  0  0  0  0  0  0  0  0  0  0
    4.7910   80.4580   26.4940 N   0  0  0  0  0  0  0  0  0  0  0  0
    3.7430   81.0660   27.2870 C   0  0  0  0  0  0  0  0  0  0  0  0
    3.2950   80.1680   28.4180 C   0  0  0  0  0  0  0  0  0  0  0  0
    3.5300   78.9660   28.3840 O   0  0  0  0  0  0  0  0  0  0  0  0
    2.6450   80.7520   29.4190 N   0  0  0  0  0  0  0  0  0  0  0  0
    2.1350   79.9960   30.5580 C   0  0  2  0  0  0  0  0  0  0  0  0
    0.8650   79.2220   30.1990 C   0  0  0  0  0  0  0  0  0  0  0  0
   -0.1710   79.3850   30.8370 O   0  0  0  0  0  0  0  0  0  0  0  0
    1.8720   80.9280   31.7340 C   0  0  0  0  0  0  0  0  0  0  0  0
    0.9490   78.3790   29.1760 N   0  0  0  0  0  0  0  0  0  0  0  0
   -0.1860   77.5570   28.7810 C   0  0  2  0  0  0  0  0  0  0  0  0
   -0.1470   76.1850   29.4530 C   0  0  0  0  0  0  0  0  0  0  0  0
    0.4600   76.0200   30.5140 O   0  0  0  0  0  0  0  0  0  0  0  0
   -0.2350   77.4050   27.2570 C   0  0  0  0  0  0  0  0  0  0  0  0
    1.0480   76.8290   26.6780 C   0  0  0  0  0  0  0  0  0  0  0  0
    1.9820   77.5650   26.3460 O   0  0  0  0  0  0  0  0  0  0  0  0
    1.0930   75.5060   26.5360 N   0  0  0  0  0  0  0  0  0  0  0  0
  2  1  1  6
  3  2  1  0
  4  3  2  0
  5  2  1  0
  6  5  1  0
  7  6  2  0
  8  6  1  0
 10  9  1  6
 11 10  1  0
 12 11  2  0
 13 10  1  0
 14 13  1  0
 13 15  1  6
 16 11  1  0
 17 16  1  0
 18 17  1  0
 19 18  2  0
 17 20  1  6
 21 20  1  0
 22 21  2  0
 23 21  1  0
 24 18  1  0
 25 24  1  0
 26 25  1  0
 27 26  2  0
 25 28  1  1
 29 28  1  0
 30 29  2  0
 31 29  1  0
 33 32  1  1
 34 33  1  0
 35 34  2  0
 36 33  1  0
 37 36  1  0
 38 37  1  0
 39 38  1  0
 40 39  1  0
 41 40  1  0
 42 40  2  0
 43 34  1  0
 44 43  1  0
 45 44  1  0
 46 45  2  0
 44 47  1  6
 48 47  1  0
 49 48  2  0
 50 48  1  0
 51 45  1  0
 52 51  1  0
 53 52  1  0
 54 53  2  0
 55 53  1  0
 56 55  1  0
 57 56  1  0
 58 57  2  0
 59 57  1  0
 60 59  1  0
 61 60  1  0
 62 61  2  0
 60 63  1  1
 64 61  1  0
 65 64  1  0
 66 65  1  0
 67 66  2  0
 65 68  1  6
 69 68  1  0
 70 69  2  0
 71 69  1  0
M  END
$$$$
