
     RDKit          3D

 71 68  0  0  0  0  0  0  0  0999 V2000
   19.0350   75.9240   22.7280 N   0  0  0  0  0  0  0  0  0  0  0  0
   18.2340   75.4380   23.8450 C   0  0  2  0  0  0  0  0  0  0  0  0
   16.7540   75.3590   23.4850 C   0  0  0  0  0  0  0  0  0  0  0  0
   16.0610   76.3840   23.4780 O   0  0  0  0  0  0  0  0  0  0  0  0
   18.4130   76.3590   25.0360 C   0  0  0  0  0  0  0  0  0  0  0  0
   19.0110   75.6690   26.2380 C   0  0  0  0  0  0  0  0  0  0  0  0
   18.4950   74.6640   26.7260 O   0  0  0  0  0  0  0  0  0  0  0  0
   20.1130   76.2150   26.7200 N   0  0  0  0  0  0  0  0  0  0  0  0
   14.2630   74.4160   25.1120 N   0  0  0  0  0  0  0  0  0  0  0  0
   13.3620   74.8490   26.1730 C   0  0  2  0  0  0  0  0  0  0  0  0
   13.1930   76.3700   26.1860 C   0  0  0  0  0  0  0  0  0  0  0  0
   12.3140   76.8930   26.8640 O   0  0  0  0  0  0  0  0  0  0  0  0
   13.8580   74.3850   27.5450 C   0  0  2  0  0  0  0  0  0  0  0  0
   15.1700   74.9080   27.7780 O   0  0  0  0  0  0  0  0  0  0  0  0
   13.9170   72.8740   27.6010 C   0  0  0  0  0  0  0  0  0  0  0  0
   14.0350   77.0670   25.4260 N   0  0  0  0  0  0  0  0  0  0  0  0
   14.0310   78.5290   25.3580 C   0  0  2  0  0  0  0  0  0  0  0  0
   13.3390   79.0410   24.0920 C   0  0  0  0  0  0  0  0  0  0  0  0
   13.8960   78.9320   23.0050 O   0  0  0  0  0  0  0  0  0  0  0  0
   15.4740   79.0440   25.4110 C   0  0  0  0  0  0  0  0  0  0  0  0
   15.5640   80.5430   25.6590 C   0  0  0  0  0  0  0  0  0  0  0  0
   14.7120   81.3180   25.2200 O   0  0  0  0  0  0  0  0  0  0  0  0
   16.6090   80.9570   26.3670 N   0  0  0  0  0  0  0  0  0  0  0  0
   12.1430   79.6160   24.2220 N   0  0  0  0  0  0  0  0  0  0  0  0
   11.3870   80.0380   23.0330 C   0  0  2  0  0  0  0  0  0  0  0  0
   11.9990   81.2330   22.3090 C   0  0  0  0  0  0  0  0  0  0  0  0
   11.5570   81.5950   21.2200 O   0  0  0  0  0  0  0  0  0  0  0  0
    9.9250   80.3590   23.3850 C   0  0  0  0  0  0  0  0  0  0  0  0
    9.7810   81.5640   24.3140 C   0  0  0  0  0  0  0  0  0  0  0  0
   10.1500   82.6860   23.9660 O   0  0  0  0  0  0  0  0  0  0  0  0
    9.2050   81.3360   25.4890 N   0  0  0  0  0  0  0  0  0  0  0  0
    9.4790   78.6170   18.1480 N   0  0  0  0  0  0  0  0  0  0  0  0
    8.5140   77.7960   18.8660 C   0  0  2  0  0  0  0  0  0  0  0  0
    7.6980   78.6620   19.8250 C   0  0  0  0  0  0  0  0  0  0  0  0
    8.2610   79.4850   20.5420 O   0  0  0  0  0  0  0  0  0  0  0  0
    9.2490   76.6830   19.6130 C   0  0  0  0  0  0  0  0  0  0  0  0
    8.3930   75.5180   20.0510 C   0  0  0  0  0  0  0  0  0  0  0  0
    8.1350   75.5440   21.5300 C   0  0  0  0  0  0  0  0  0  0  0  0
    9.3340   75.8140   22.3220 N   0  0  0  0  0  0  0  0  0  0  0  0
    9.2890   76.1230   23.6140 C   0  0  0  0  0  0  0  0  0  0  0  0
    8.1120   76.1820   24.2180 N   0  0  0  0  0  0  0  0  0  0  0  0
   10.3990   76.3690   24.3010 N   0  0  0  0  0  0  0  0  0  0  0  0
    6.3770   78.4900   19.8240 N   0  0  0  0  0  0  0  0  0  0  0  0
    5.4970   79.2630   20.7060 C   0  0  2  0  0  0  0  0  0  0  0  0
    5.7210   78.9420   22.1860 C   0  0  0  0  0  0  0  0  0  0  0  0
    5.9910   77.7970   22.5480 O   0  0  0  0  0  0  0  0  0  0  0  0
    4.0270   79.0100   20.3530 C   0  0  0  0  0  0  0  0  0  0  0  0
    3.5350   79.8780   19.2070 C   0  0  0  0  0  0  0  0  0  0  0  0
    4.3680   80.4420   18.4670 O   0  0  0  0  0  0  0  0  0  0  0  0
    2.3030   79.9940   19.0460 O   0  0  0  0  0  0  0  0  0  0  0  0
    5.5960   79.9540   23.0400 N   0  0  0  0  0  0  0  0  0  0  0  0
    5.7260   79.7630   24.4720 C   0  0  0  0  0  0  0  0  0  0  0  0
    4.4870   80.2270   25.2070 C   0  0  0  0  0  0  0  0  0  0  0  0
    3.4250   80.3970   24.6090 O   0  0  0  0  0  0  0  0  0  0  0  0
    4.6190   80.4370   26.5130 N   0  0  0  0  0  0  0  0  0  0  0  0
    3.5180   80.9430   27.3060 C   0  0  0  0  0  0  0  0  0  0  0  0
    3.1870   79.9980   28.4400 C   0  0  0  0  0  0  0  0  0  0  0  0
    3.5000   78.8010   28.3540 O   0  0  0  0  0  0  0  0  0  0  0  0
    2.5670   80.5250   29.4940 N   0  0  0  0  0  0  0  0  0  0  0  0
    2.1270   79.7170   30.6260 C   0  0  2  0  0  0  0  0  0  0  0  0
    0.9290   78.8280   30.2600 C   0  0  0  0  0  0  0  0  0  0  0  0
   -0.2050   79.1280   30.6150 O   0  0  0  0  0  0  0  0  0  0  0  0
    1.7630   80.6200   31.7930 C   0  0  0  0  0  0  0  0  0  0  0  0
    1.1870   77.7490   29.5320 N   0  0  0  0  0  0  0  0  0  0  0  0
    0.1260   76.8740   29.0630 C   0  0  2  0  0  0  0  0  0  0  0  0
    0.2880   75.4460   29.5570 C   0  0  0  0  0  0  0  0  0  0  0  0
    1.2330   75.1330   30.2960 O   0  0  0  0  0  0  0  0  0  0  0  0
    0.0230   76.9110   27.5310 C   0  0  0  0  0  0  0  0  0  0  0  0
    1.2890   76.5460   26.8430 C   0  0  0  0  0  0  0  0  0  0  0  0
    1.6960   75.3790   26.8160 O   0  0  0  0  0  0  0  0  0  0  0  0
    1.9580   77.5510   26.3160 N   0  0  0  0  0  0  0  0  0  0  0  0
  2  1  1  6
  3  2  1  0
  4  3  2  0
  5  2  1  0
  6  5  1  0
  7  6  2  0
  8  6  1  0
 10  9  1  6
 11 10  1  0
 12 11  2  0
 13 10  1  0
 14 13  1  0
 13 15  1  6
 16 11  1  0
 17 16  1  0
 18 17  1  0
 19 18  2  0
 17 20  1  6
 21 20  1  0
 22 21  2  0
 23 21  1  0
 24 18  1  0
 25 24  1  0
 26 25  1  0
 27 26  2  0
 25 28  1  1
 29 28  1  0
 30 29  2  0
 31 29  1  0
 33 32  1  1
 34 33  1  0
 35 34  2  0
 36 33  1  0
 37 36  1  0
 38 37  1  0
 39 38  1  0
 40 39  1  0
 41 40  1  0
 42 40  2  0
 43 34  1  0
 44 43  1  0
 45 44  1  0
 46 45  2  0
 44 47  1  6
 48 47  1  0
 49 48  2  0
 50 48  1  0
 51 45  1  0
 52 51  1  0
 53 52  1  0
 54 53  2  0
 55 53  1  0
 56 55  1  0
 57 56  1  0
 58 57  2  0
 59 57  1  0
 60 59  1  0
 61 60  1  0
 62 61  2  0
 60 63  1  1
 64 61  1  0
 65 64  1  0
 66 65  1  0
 67 66  2  0
 65 68  1  6
 69 68  1  0
 70 69  2  0
 71 69  1  0
M  END
$$$$
