
     RDKit          3D

183178  0  0  0  0  0  0  0  0999 V2000
   29.9510   86.9890    8.6210 N   0  0  0  0  0  0  0  0  0  0  0  0
   28.9540   88.0550    8.6260 C   0  0  2  0  0  0  0  0  0  0  0  0
   29.5580   89.3770    8.1620 C   0  0  0  0  0  0  0  0  0  0  0  0
   28.9680   90.0850    7.3460 O   0  0  0  0  0  0  0  0  0  0  0  0
   28.3420   88.2110   10.0180 C   0  0  0  0  0  0  0  0  0  0  0  0
   27.3430   89.3560   10.1480 C   0  0  0  0  0  0  0  0  0  0  0  0
   25.9880   89.0470    9.5310 C   0  0  0  0  0  0  0  0  0  0  0  0
   25.8600   88.1580    8.6890 O   0  0  0  0  0  0  0  0  0  0  0  0
   24.9670   89.7820    9.9530 N   0  0  0  0  0  0  0  0  0  0  0  0
   15.3860   84.3310    4.4100 N   0  0  0  0  0  0  0  0  0  0  0  0
   14.6330   84.0960    5.6330 C   0  0  2  0  0  0  0  0  0  0  0  0
   13.6750   82.9280    5.4400 C   0  0  0  0  0  0  0  0  0  0  0  0
   13.3380   82.5720    4.3070 O   0  0  0  0  0  0  0  0  0  0  0  0
   13.8450   85.3430    6.0760 C   0  0  2  0  0  0  0  0  0  0  0  0
   12.8450   85.6520    5.1030 O   0  0  0  0  0  0  0  0  0  0  0  0
   14.7800   86.5460    6.2460 C   0  0  0  0  0  0  0  0  0  0  0  0
   12.1430   79.6160   24.2220 N   0  0  0  0  0  0  0  0  0  0  0  0
   11.3870   80.0380   23.0330 C   0  0  2  0  0  0  0  0  0  0  0  0
   11.9990   81.2330   22.3090 C   0  0  0  0  0  0  0  0  0  0  0  0
   11.5570   81.5950   21.2200 O   0  0  0  0  0  0  0  0  0  0  0  0
    9.9250   80.3590   23.3850 C   0  0  0  0  0  0  0  0  0  0  0  0
    9.7810   81.5640   24.3140 C   0  0  0  0  0  0  0  0  0  0  0  0
   10.1500   82.6860   23.9660 O   0  0  0  0  0  0  0  0  0  0  0  0
    9.2050   81.3360   25.4890 N   0  0  0  0  0  0  0  0  0  0  0  0
   13.0010   81.8530   22.9200 N   0  0  0  0  0  0  0  0  0  0  0  0
   13.6540   83.0090   22.3220 C   0  0  2  0  0  0  0  0  0  0  0  0
   14.7770   82.5620   21.3950 C   0  0  0  0  0  0  0  0  0  0  0  0
   15.3220   83.3650   20.6420 O   0  0  0  0  0  0  0  0  0  0  0  0
   14.1950   83.9540   23.4140 C   0  0  0  0  0  0  0  0  0  0  0  0
   15.1270   81.2790   21.4670 N   0  0  0  0  0  0  0  0  0  0  0  0
   16.2150   80.7420   20.6590 C   0  0  2  0  0  0  0  0  0  0  0  0
   15.6890   80.1410   19.3660 C   0  0  0  0  0  0  0  0  0  0  0  0
   14.7660   79.3290   19.3760 O   0  0  0  0  0  0  0  0  0  0  0  0
   17.0110   79.6910   21.4310 C   0  0  0  0  0  0  0  0  0  0  0  0
   17.7140   80.2070   22.6770 C   0  0  0  0  0  0  0  0  0  0  0  0
   18.4820   81.4930   22.4060 C   0  0  0  0  0  0  0  0  0  0  0  0
   19.5300   81.7550   23.4820 C   0  0  0  0  0  0  0  0  0  0  0  0
   20.0670   83.1470   23.3720 N   0  0  0  0  0  0  0  0  0  0  0  0
   16.2940   80.5540   18.2560 N   0  0  0  0  0  0  0  0  0  0  0  0
   15.9370   80.0740   16.9240 C   0  0  2  0  0  0  0  0  0  0  0  0
   16.1790   78.5720   16.7920 C   0  0  0  0  0  0  0  0  0  0  0  0
   17.0930   78.0200   17.4080 O   0  0  0  0  0  0  0  0  0  0  0  0
   16.7380   80.8210   15.8250 C   0  0  2  0  0  0  0  0  0  0  0  0
   16.5090   82.2270   15.9430 O   0  0  0  0  0  0  0  0  0  0  0  0
   16.3190   80.3830   14.4170 C   0  0  0  0  0  0  0  0  0  0  0  0
    3.7270   85.3640   13.5090 N   0  0  0  0  0  0  0  0  0  0  0  0
    2.7670   86.1430   14.2910 C   0  0  2  0  0  0  0  0  0  0  0  0
    2.7810   87.6240   13.9310 C   0  0  0  0  0  0  0  0  0  0  0  0
    1.8280   88.3410   14.2150 O   0  0  0  0  0  0  0  0  0  0  0  0
    3.0300   85.9720   15.7880 C   0  0  0  0  0  0  0  0  0  0  0  0
    2.6610   84.6770   16.2220 O   0  0  0  0  0  0  0  0  0  0  0  0
    3.8580   88.0730   13.2980 N   0  0  0  0  0  0  0  0  0  0  0  0
    4.0030   89.4680   12.9240 C   0  0  0  0  0  0  0  0  0  0  0  0
    5.4450   89.7740   12.5660 C   0  0  0  0  0  0  0  0  0  0  0  0
    6.2840   88.8790   12.5630 O   0  0  0  0  0  0  0  0  0  0  0  0
    5.7340   91.0370   12.2690 N   0  0  0  0  0  0  0  0  0  0  0  0
    7.0710   91.4500   11.8730 C   0  0  0  0  0  0  0  0  0  0  0  0
    7.0810   92.1470   10.5210 C   0  0  0  0  0  0  0  0  0  0  0  0
    6.0310   92.3490    9.9100 O   0  0  0  0  0  0  0  0  0  0  0  0
    8.2650   92.5250   10.0490 N   0  0  0  0  0  0  0  0  0  0  0  0
    8.3910   93.1320    8.7220 C   0  0  2  0  0  0  0  0  0  0  0  0
    8.2170   92.0590    7.6470 C   0  0  0  0  0  0  0  0  0  0  0  0
    8.2930   90.8680    7.9450 O   0  0  0  0  0  0  0  0  0  0  0  0
    9.7440   93.8430    8.5730 C   0  0  0  0  0  0  0  0  0  0  0  0
    9.9020   95.0100    9.5440 C   0  0  0  0  0  0  0  0  0  0  0  0
    8.8720   95.5690    9.9800 O   0  0  0  0  0  0  0  0  0  0  0  0
   11.0520   95.3700    9.8740 O   0  0  0  0  0  0  0  0  0  0  0  0
    7.9800   92.4760    6.4040 N   0  0  0  0  0  0  0  0  0  0  0  0
    7.7700   91.5290    5.3020 C   0  0  2  0  0  0  0  0  0  0  0  0
    8.9500   90.5900    5.1050 C   0  0  0  0  0  0  0  0  0  0  0  0
    8.7770   89.4340    4.7250 O   0  0  0  0  0  0  0  0  0  0  0  0
    7.5000   92.2620    3.9930 C   0  0  0  0  0  0  0  0  0  0  0  0
    6.1320   92.9130    3.8520 C   0  0  0  0  0  0  0  0  0  0  0  0
    5.9580   93.4350    2.4290 C   0  0  0  0  0  0  0  0  0  0  0  0
    5.0420   91.9250    4.2090 C   0  0  0  0  0  0  0  0  0  0  0  0
   10.1480   91.0950    5.3700 N   0  0  0  0  0  0  0  0  0  0  0  0
   11.3580   90.3050    5.2190 C   0  0  2  0  0  0  0  0  0  0  0  0
   11.3010   88.9830    5.9900 C   0  0  0  0  0  0  0  0  0  0  0  0
   11.9690   88.0240    5.6120 O   0  0  0  0  0  0  0  0  0  0  0  0
   12.5770   91.1130    5.6640 C   0  0  0  0  0  0  0  0  0  0  0  0
   13.0200   92.2000    4.6840 C   0  0  0  0  0  0  0  0  0  0  0  0
   12.1260   93.4270    4.7080 C   0  0  0  0  0  0  0  0  0  0  0  0
   11.3300   93.5650    5.6630 O   0  0  0  0  0  0  0  0  0  0  0  0
   12.2220   94.2540    3.7690 O   0  0  0  0  0  0  0  0  0  0  0  0
   10.5060   88.9230    7.0570 N   0  0  0  0  0  0  0  0  0  0  0  0
   10.4210   87.6980    7.8520 C   0  0  2  0  0  0  0  0  0  0  0  0
    9.0260   87.0630    7.8710 C   0  0  0  0  0  0  0  0  0  0  0  0
    8.8980   85.8660    8.1220 O   0  0  0  0  0  0  0  0  0  0  0  0
   10.8740   87.9300    9.3180 C   0  0  2  0  0  0  0  0  0  0  0  0
   10.0440   89.0150    9.9920 C   0  0  0  0  0  0  0  0  0  0  0  0
   12.3460   88.2940    9.3810 C   0  0  0  0  0  0  0  0  0  0  0  0
   10.4440   89.2350   11.4320 C   0  0  0  0  0  0  0  0  0  0  0  0
   11.9610   85.7140    2.1290 N   0  0  0  0  0  0  0  0  0  0  0  0
   12.7170   86.7970    1.5100 C   0  0  2  0  0  0  0  0  0  0  0  0
   14.0460   86.2820    0.9850 C   0  0  0  0  0  0  0  0  0  0  0  0
   14.7600   85.5770    1.6890 O   0  0  0  0  0  0  0  0  0  0  0  0
   12.9410   87.9210    2.5240 C   0  0  0  0  0  0  0  0  0  0  0  0
   13.6900   89.0970    1.9810 C   0  0  0  0  0  0  0  0  0  0  0  0
   13.3220   89.7450    0.8210 N   0  0  0  0  0  0  0  0  0  0  0  0
   14.7770   89.7540    2.4520 C   0  0  0  0  0  0  0  0  0  0  0  0
   14.1550   90.7460    0.5970 C   0  0  0  0  0  0  0  0  0  0  0  0
   15.0480   90.7720    1.5700 N   0  0  0  0  0  0  0  0  0  0  0  0
   13.7940   96.5900    3.6700 N   0  0  0  0  0  0  0  0  0  0  0  0
   14.5260   96.7750    4.9170 C   0  0  2  0  0  0  0  0  0  0  0  0
   15.8190   95.9700    4.8700 C   0  0  0  0  0  0  0  0  0  0  0  0
   15.7940   94.7570    4.6490 O   0  0  0  0  0  0  0  0  0  0  0  0
   13.6780   96.3520    6.1200 C   0  0  0  0  0  0  0  0  0  0  0  0
   12.4340   97.1920    6.2770 C   0  0  0  0  0  0  0  0  0  0  0  0
   12.5110   98.4130    6.4190 O   0  0  0  0  0  0  0  0  0  0  0  0
   11.2720   96.5440    6.2470 N   0  0  0  0  0  0  0  0  0  0  0  0
   16.9440   96.6490    5.0660 N   0  0  0  0  0  0  0  0  0  0  0  0
   18.2570   96.0160    4.9580 C   0  0  2  0  0  0  0  0  0  0  0  0
   18.5580   95.0790    6.1300 C   0  0  0  0  0  0  0  0  0  0  0  0
   18.3760   95.4430    7.2950 O   0  0  0  0  0  0  0  0  0  0  0  0
   19.3420   97.0850    4.8490 C   0  0  0  0  0  0  0  0  0  0  0  0
   19.3940   97.7640    3.4830 C   0  0  0  0  0  0  0  0  0  0  0  0
   20.4500   99.2240    3.4660 S   0  0  0  0  0  0  0  0  0  0  0  0
   19.4370  100.3780    4.3820 C   0  0  0  0  0  0  0  0  0  0  0  0
   19.0280   93.8740    5.8130 N   0  0  0  0  0  0  0  0  0  0  0  0
   19.3190   92.8680    6.8320 C   0  0  2  0  0  0  0  0  0  0  0  0
   20.5800   93.2130    7.6080 C   0  0  0  0  0  0  0  0  0  0  0  0
   20.8820   92.5940    8.6320 O   0  0  0  0  0  0  0  0  0  0  0  0
   19.4450   91.4710    6.2000 C   0  0  0  0  0  0  0  0  0  0  0  0
   20.5230   91.3620    5.1580 C   0  0  0  0  0  0  0  0  0  0  0  0
   20.3810   91.5280    3.8100 C   0  0  0  0  0  0  0  0  0  0  0  0
   21.9090   91.0680    5.3810 C   0  0  0  0  0  0  0  0  0  0  0  0
   21.5920   91.3560    3.1800 N   0  0  0  0  0  0  0  0  0  0  0  0
   22.5450   91.0740    4.1230 C   0  0  0  0  0  0  0  0  0  0  0  0
   22.6730   90.8030    6.5230 C   0  0  0  0  0  0  0  0  0  0  0  0
   23.9050   90.8230    3.9760 C   0  0  0  0  0  0  0  0  0  0  0  0
   24.0220   90.5530    6.3740 C   0  0  0  0  0  0  0  0  0  0  0  0
   24.6240   90.5640    5.1100 C   0  0  0  0  0  0  0  0  0  0  0  0
   21.3080   94.2140    7.1230 N   0  0  0  0  0  0  0  0  0  0  0  0
   22.5120   94.6830    7.7990 C   0  0  2  0  0  0  0  0  0  0  0  0
   22.1560   95.4760    9.0550 C   0  0  0  0  0  0  0  0  0  0  0  0
   23.0380   95.9030    9.7990 O   0  0  0  0  0  0  0  0  0  0  0  0
   23.3660   95.5360    6.8550 C   0  0  0  0  0  0  0  0  0  0  0  0
   23.8550   94.8070    5.6040 C   0  0  0  0  0  0  0  0  0  0  0  0
   22.8650   94.8750    4.4510 C   0  0  0  0  0  0  0  0  0  0  0  0
   21.6740   94.6240    4.6220 O   0  0  0  0  0  0  0  0  0  0  0  0
   23.3590   95.2240    3.2690 N   0  0  0  0  0  0  0  0  0  0  0  0
   20.8590   95.6630    9.2840 N   0  0  0  0  0  0  0  0  0  0  0  0
   20.3770   96.3450   10.4680 C   0  0  0  0  0  0  0  0  0  0  0  0
   20.4130   97.8440   10.2870 C   0  0  0  0  0  0  0  0  0  0  0  0
   20.2680   98.5990   11.2450 O   0  0  0  0  0  0  0  0  0  0  0  0
   20.6020   98.2750    9.0460 N   0  0  0  0  0  0  0  0  0  0  0  0
   20.7270   99.6950    8.7410 C   0  0  2  0  0  0  0  0  0  0  0  0
   19.3670  100.3930    8.7690 C   0  0  0  0  0  0  0  0  0  0  0  0
   19.0130  101.0420    9.7520 O   0  0  0  0  0  0  0  0  0  0  0  0
   21.3840   99.9130    7.3650 C   0  0  2  0  0  0  0  0  0  0  0  0
   22.1290   98.7480    6.9930 O   0  0  0  0  0  0  0  0  0  0  0  0
   22.3120  101.1160    7.4020 C   0  0  0  0  0  0  0  0  0  0  0  0
   10.6170   79.2500   14.8240 N   0  0  0  0  0  0  0  0  0  0  0  0
   10.4810   79.6740   16.2110 C   0  0  2  0  0  0  0  0  0  0  0  0
    9.3600   78.8640   16.8510 C   0  0  0  0  0  0  0  0  0  0  0  0
    8.4070   78.4720   16.1800 O   0  0  0  0  0  0  0  0  0  0  0  0
   10.1710   81.1770   16.3460 C   0  0  2  0  0  0  0  0  0  0  0  0
    8.9060   81.4600   15.7370 O   0  0  0  0  0  0  0  0  0  0  0  0
   11.2560   82.0090   15.6820 C   0  0  0  0  0  0  0  0  0  0  0  0
   13.6890   83.3970   11.0850 N   0  0  0  0  0  0  0  0  0  0  0  0
   14.7590   84.0260   10.3370 C   0  0  0  0  0  0  0  0  0  0  0  0
   14.8500   85.5050   10.6460 C   0  0  0  0  0  0  0  0  0  0  0  0
   14.1730   86.0020   11.5480 O   0  0  0  0  0  0  0  0  0  0  0  0
   15.6830   86.2150    9.8950 N   0  0  0  0  0  0  0  0  0  0  0  0
   15.9050   87.6250   10.1540 C   0  0  0  0  0  0  0  0  0  0  0  0
   17.2820   87.8700   10.7350 C   0  0  0  0  0  0  0  0  0  0  0  0
   17.9010   88.9010   10.4670 O   0  0  0  0  0  0  0  0  0  0  0  0
   17.7630   86.9290   11.5450 N   0  0  0  0  0  0  0  0  0  0  0  0
   19.1490   86.9710   11.9930 C   0  0  2  0  0  0  0  0  0  0  0  0
   20.0170   86.1870   11.0140 C   0  0  0  0  0  0  0  0  0  0  0  0
   20.1030   84.9660   11.1010 O   0  0  0  0  0  0  0  0  0  0  0  0
   19.2930   86.4100   13.4060 C   0  0  0  0  0  0  0  0  0  0  0  0
   20.6710   86.6730   14.0030 C   0  0  0  0  0  0  0  0  0  0  0  0
   21.6240   87.0010   13.2930 O   0  0  0  0  0  0  0  0  0  0  0  0
   20.7790   86.5290   15.3190 N   0  0  0  0  0  0  0  0  0  0  0  0
   20.6640   86.8910   10.0900 N   0  0  0  0  0  0  0  0  0  0  0  0
   21.3860   86.2310    9.0040 C   0  0  2  0  0  0  0  0  0  0  0  0
   22.6050   85.4640    9.5160 C   0  0  0  0  0  0  0  0  0  0  0  0
   23.1010   84.5570    8.8460 O   0  0  0  0  0  0  0  0  0  0  0  0
   21.8170   87.2430    7.9220 C   0  0  2  0  0  0  0  0  0  0  0  0
   20.6190   88.0840    7.4950 C   0  0  0  0  0  0  0  0  0  0  0  0
   22.3570   86.5310    6.7020 C   0  0  0  0  0  0  0  0  0  0  0  0
   19.4640   87.2530    6.9790 C   0  0  0  0  0  0  0  0  0  0  0  0
  2  1  1  1
  3  2  1  0
  4  3  2  0
  5  2  1  0
  6  5  1  0
  7  6  1  0
  8  7  2  0
  9  7  1  0
 11 10  1  6
 12 11  1  0
 13 12  2  0
 14 11  1  0
 15 14  1  0
 14 16  1  6
 18 17  1  1
 19 18  1  0
 20 19  2  0
 21 18  1  0
 22 21  1  0
 23 22  2  0
 24 22  1  0
 25 19  1  0
 26 25  1  0
 27 26  1  0
 28 27  2  0
 26 29  1  1
 30 27  1  0
 31 30  1  0
 32 31  1  0
 33 32  2  0
 31 34  1  1
 35 34  1  0
 36 35  1  0
 37 36  1  0
 38 37  1  0
 39 32  1  0
 40 39  1  1
 41 40  1  0
 42 41  2  0
 43 40  1  0
 44 43  1  0
 43 45  1  6
 47 46  1  6
 48 47  1  0
 49 48  2  0
 50 47  1  0
 51 50  1  0
 52 48  1  0
 53 52  1  0
 54 53  1  0
 55 54  2  0
 56 54  1  0
 57 56  1  0
 58 57  1  0
 59 58  2  0
 60 58  1  0
 61 60  1  0
 62 61  1  0
 63 62  2  0
 61 64  1  1
 65 64  1  0
 66 65  2  0
 67 65  1  0
 68 62  1  0
 69 68  1  0
 70 69  1  0
 71 70  2  0
 69 72  1  6
 73 72  1  0
 74 73  1  0
 75 73  1  0
 76 70  1  0
 77 76  1  0
 78 77  1  0
 79 78  2  0
 77 80  1  1
 81 80  1  0
 82 81  1  0
 83 82  2  0
 84 82  1  0
 85 78  1  0
 86 85  1  6
 87 86  1  0
 88 87  2  0
 89 86  1  0
 90 89  1  0
 89 91  1  6
 92 90  1  0
 94 93  1  1
 95 94  1  0
 96 95  2  0
 97 94  1  0
 98 97  1  0
 99 98  1  0
100 98  2  0
101 99  2  0
102101  1  0
102100  1  0
104103  1  6
105104  1  0
106105  2  0
107104  1  0
108107  1  0
109108  2  0
110108  1  0
111105  1  0
112111  1  0
113112  1  0
114113  2  0
112115  1  1
116115  1  0
117116  1  0
118117  1  0
119113  1  0
120119  1  0
121120  1  0
122121  2  0
120123  1  6
124123  1  0
125124  2  0
126124  1  0
127125  1  0
128127  1  0
128126  2  0
129126  1  0
130128  1  0
131129  2  0
132130  2  0
132131  1  0
133121  1  0
134133  1  0
135134  1  0
136135  2  0
134137  1  6
138137  1  0
139138  1  0
140139  2  0
141139  1  0
142135  1  0
143142  1  0
144143  1  0
145144  2  0
146144  1  0
147146  1  6
148147  1  0
149148  2  0
150147  1  0
151150  1  0
150152  1  1
154153  1  6
155154  1  0
156155  2  0
157154  1  0
158157  1  0
157159  1  6
161160  1  0
162161  1  0
163162  2  0
164162  1  0
165164  1  0
166165  1  0
167166  2  0
168166  1  0
169168  1  0
170169  1  0
171170  2  0
169172  1  1
173172  1  0
174173  2  0
175173  1  0
176170  1  0
177176  1  1
178177  1  0
179178  2  0
180177  1  0
181180  1  0
180182  1  6
183181  1  0
M  END
$$$$
