
     RDKit          3D

159155  0  0  0  0  0  0  0  0999 V2000
  -12.3070    4.1860  -24.2970 N   0  0  0  0  0  0  0  0  0  0  0  0
  -11.5480    4.6080  -23.1190 C   0  0  2  0  0  0  0  0  0  0  0  0
  -12.1580    5.8040  -22.3790 C   0  0  0  0  0  0  0  0  0  0  0  0
  -11.6840    6.1800  -21.3070 O   0  0  0  0  0  0  0  0  0  0  0  0
  -10.0910    4.9220  -23.5080 C   0  0  0  0  0  0  0  0  0  0  0  0
   -9.9530    6.1710  -24.3810 C   0  0  0  0  0  0  0  0  0  0  0  0
  -10.4470    7.2470  -24.0430 O   0  0  0  0  0  0  0  0  0  0  0  0
   -9.2580    6.0290  -25.5060 N   0  0  0  0  0  0  0  0  0  0  0  0
  -13.1990    6.4020  -22.9500 N   0  0  0  0  0  0  0  0  0  0  0  0
  -13.8670    7.5330  -22.3130 C   0  0  2  0  0  0  0  0  0  0  0  0
  -15.0230    7.0750  -21.4280 C   0  0  0  0  0  0  0  0  0  0  0  0
  -15.5500    7.8560  -20.6360 O   0  0  0  0  0  0  0  0  0  0  0  0
  -14.3640    8.5220  -23.3630 C   0  0  0  0  0  0  0  0  0  0  0  0
  -15.4140    5.8090  -21.5610 N   0  0  0  0  0  0  0  0  0  0  0  0
  -16.5020    5.2640  -20.7520 C   0  0  2  0  0  0  0  0  0  0  0  0
  -15.9780    4.7110  -19.4340 C   0  0  0  0  0  0  0  0  0  0  0  0
  -14.9440    4.0460  -19.3980 O   0  0  0  0  0  0  0  0  0  0  0  0
  -17.2560    4.1700  -21.5150 C   0  0  0  0  0  0  0  0  0  0  0  0
  -17.9380    4.6520  -22.7900 C   0  0  0  0  0  0  0  0  0  0  0  0
  -18.8720    5.8240  -22.5180 C   0  0  0  0  0  0  0  0  0  0  0  0
  -19.5380    6.3090  -23.7980 C   0  0  0  0  0  0  0  0  0  0  0  0
  -20.1980    7.6360  -23.6180 N   0  0  0  0  0  0  0  0  0  0  0  0
  -16.7030    4.9920  -18.3540 N   0  0  0  0  0  0  0  0  0  0  0  0
  -16.3190    4.5490  -17.0200 C   0  0  2  0  0  0  0  0  0  0  0  0
  -16.4310    3.0320  -16.8910 C   0  0  0  0  0  0  0  0  0  0  0  0
  -17.3090    2.4090  -17.4920 O   0  0  0  0  0  0  0  0  0  0  0  0
  -17.1930    5.2170  -15.9250 C   0  0  2  0  0  0  0  0  0  0  0  0
  -17.2340    6.6340  -16.1320 O   0  0  0  0  0  0  0  0  0  0  0  0
  -16.6380    4.9290  -14.5290 C   0  0  0  0  0  0  0  0  0  0  0  0
   -3.8390   10.0340  -13.3660 N   0  0  0  0  0  0  0  0  0  0  0  0
   -2.9130   10.8280  -14.1710 C   0  0  2  0  0  0  0  0  0  0  0  0
   -2.9980   12.3180  -13.8510 C   0  0  0  0  0  0  0  0  0  0  0  0
   -2.0480   13.0650  -14.0860 O   0  0  0  0  0  0  0  0  0  0  0  0
   -3.1730   10.6030  -15.6630 C   0  0  0  0  0  0  0  0  0  0  0  0
   -2.6550    9.3540  -16.0890 O   0  0  0  0  0  0  0  0  0  0  0  0
   -4.1370   12.7470  -13.3190 N   0  0  0  0  0  0  0  0  0  0  0  0
   -4.3210   14.1390  -12.9490 C   0  0  0  0  0  0  0  0  0  0  0  0
   -5.7600   14.4560  -12.6040 C   0  0  0  0  0  0  0  0  0  0  0  0
   -6.6120   13.5690  -12.5920 O   0  0  0  0  0  0  0  0  0  0  0  0
   -6.0320   15.7270  -12.3270 N   0  0  0  0  0  0  0  0  0  0  0  0
   -7.3690   16.1570  -11.9620 C   0  0  0  0  0  0  0  0  0  0  0  0
   -7.4000   16.7810  -10.5800 C   0  0  0  0  0  0  0  0  0  0  0  0
   -6.3680   16.8800   -9.9170 O   0  0  0  0  0  0  0  0  0  0  0  0
   -8.5850   17.2080  -10.1500 N   0  0  0  0  0  0  0  0  0  0  0  0
   -8.7540   17.8060   -8.8280 C   0  0  2  0  0  0  0  0  0  0  0  0
   -8.5940   16.7510   -7.7350 C   0  0  0  0  0  0  0  0  0  0  0  0
   -8.7230   15.5540   -7.9990 O   0  0  0  0  0  0  0  0  0  0  0  0
  -10.1220   18.4870   -8.7160 C   0  0  0  0  0  0  0  0  0  0  0  0
  -10.3010   19.6100   -9.7250 C   0  0  0  0  0  0  0  0  0  0  0  0
   -9.2810   20.1670  -10.1830 O   0  0  0  0  0  0  0  0  0  0  0  0
  -11.4600   19.9360  -10.0600 O   0  0  0  0  0  0  0  0  0  0  0  0
  -10.4460   15.7850   -5.4920 N   0  0  0  0  0  0  0  0  0  0  0  0
  -11.6440   14.9940   -5.2520 C   0  0  2  0  0  0  0  0  0  0  0  0
  -11.6480   13.6830   -6.0420 C   0  0  0  0  0  0  0  0  0  0  0  0
  -12.3130   12.7290   -5.6420 O   0  0  0  0  0  0  0  0  0  0  0  0
  -12.8990   15.8070   -5.5840 C   0  0  0  0  0  0  0  0  0  0  0  0
  -13.2570   16.8770   -4.5470 C   0  0  0  0  0  0  0  0  0  0  0  0
  -12.3690   18.1070   -4.6310 C   0  0  0  0  0  0  0  0  0  0  0  0
  -11.6750   18.2720   -5.6590 O   0  0  0  0  0  0  0  0  0  0  0  0
  -12.3650   18.9100   -3.6690 O   0  0  0  0  0  0  0  0  0  0  0  0
  -10.9090   13.6250   -7.1500 N   0  0  0  0  0  0  0  0  0  0  0  0
  -10.8540   12.3920   -7.9410 C   0  0  2  0  0  0  0  0  0  0  0  0
   -9.4840   11.6960   -7.9230 C   0  0  0  0  0  0  0  0  0  0  0  0
   -9.4110   10.4790   -8.1020 O   0  0  0  0  0  0  0  0  0  0  0  0
  -11.2590   12.6390   -9.4140 C   0  0  2  0  0  0  0  0  0  0  0  0
  -10.2550   13.5480  -10.1150 C   0  0  0  0  0  0  0  0  0  0  0  0
  -12.6660   13.2200   -9.5020 C   0  0  0  0  0  0  0  0  0  0  0  0
  -10.5640   13.7480  -11.5800 C   0  0  0  0  0  0  0  0  0  0  0  0
  -12.2270   10.2800   -2.2000 N   0  0  0  0  0  0  0  0  0  0  0  0
  -12.9670   11.3750   -1.5850 C   0  0  2  0  0  0  0  0  0  0  0  0
  -14.3190   10.8930   -1.0780 C   0  0  0  0  0  0  0  0  0  0  0  0
  -15.0400   10.1950   -1.7910 O   0  0  0  0  0  0  0  0  0  0  0  0
  -13.1430   12.5150   -2.5910 C   0  0  0  0  0  0  0  0  0  0  0  0
  -13.9370   13.6730   -2.0720 C   0  0  0  0  0  0  0  0  0  0  0  0
  -13.6380   14.3110   -0.8860 N   0  0  0  0  0  0  0  0  0  0  0  0
  -15.0110   14.3160   -2.5850 C   0  0  0  0  0  0  0  0  0  0  0  0
  -14.4990   15.2930   -0.6890 C   0  0  0  0  0  0  0  0  0  0  0  0
  -15.3430   15.3190   -1.7060 N   0  0  0  0  0  0  0  0  0  0  0  0
  -14.0310   21.2640   -3.6030 N   0  0  0  0  0  0  0  0  0  0  0  0
  -14.7860   21.4210   -4.8390 C   0  0  2  0  0  0  0  0  0  0  0  0
  -16.0850   20.6340   -4.7200 C   0  0  0  0  0  0  0  0  0  0  0  0
  -16.0620   19.4280   -4.4670 O   0  0  0  0  0  0  0  0  0  0  0  0
  -13.9800   20.9430   -6.0520 C   0  0  0  0  0  0  0  0  0  0  0  0
  -12.7700   21.8130   -6.3320 C   0  0  0  0  0  0  0  0  0  0  0  0
  -12.8880   23.0280   -6.5010 O   0  0  0  0  0  0  0  0  0  0  0  0
  -11.5940   21.1930   -6.3800 N   0  0  0  0  0  0  0  0  0  0  0  0
  -17.2140   21.3160   -4.8900 N   0  0  0  0  0  0  0  0  0  0  0  0
  -18.5210   20.6800   -4.7430 C   0  0  2  0  0  0  0  0  0  0  0  0
  -18.8320   19.7310   -5.8940 C   0  0  0  0  0  0  0  0  0  0  0  0
  -18.6170   20.0640   -7.0610 O   0  0  0  0  0  0  0  0  0  0  0  0
  -19.6170   21.7390   -4.6310 C   0  0  0  0  0  0  0  0  0  0  0  0
  -19.7350   22.3530   -3.2460 C   0  0  0  0  0  0  0  0  0  0  0  0
  -20.8560   23.7630   -3.2080 S   0  0  0  0  0  0  0  0  0  0  0  0
  -19.8510   25.0100   -4.0100 C   0  0  0  0  0  0  0  0  0  0  0  0
  -19.3380   18.5450   -5.5630 N   0  0  0  0  0  0  0  0  0  0  0  0
  -19.7020   17.5740   -6.5880 C   0  0  2  0  0  0  0  0  0  0  0  0
  -21.0360   17.9530   -7.2200 C   0  0  0  0  0  0  0  0  0  0  0  0
  -21.3240   17.5650   -8.3540 O   0  0  0  0  0  0  0  0  0  0  0  0
  -19.7680   16.1560   -6.0100 C   0  0  0  0  0  0  0  0  0  0  0  0
  -20.9040   15.9400   -5.0550 C   0  0  0  0  0  0  0  0  0  0  0  0
  -20.8720   16.0780   -3.6980 C   0  0  0  0  0  0  0  0  0  0  0  0
  -22.2420   15.5490   -5.3890 C   0  0  0  0  0  0  0  0  0  0  0  0
  -22.1080   15.7990   -3.1650 N   0  0  0  0  0  0  0  0  0  0  0  0
  -22.9670   15.4730   -4.1820 C   0  0  0  0  0  0  0  0  0  0  0  0
  -22.8990   15.2620   -6.5900 C   0  0  0  0  0  0  0  0  0  0  0  0
  -24.3130   15.1170   -4.1420 C   0  0  0  0  0  0  0  0  0  0  0  0
  -24.2350   14.9090   -6.5480 C   0  0  0  0  0  0  0  0  0  0  0  0
  -24.9280   14.8390   -5.3310 C   0  0  0  0  0  0  0  0  0  0  0  0
  -21.8410   18.7200   -6.4860 N   0  0  0  0  0  0  0  0  0  0  0  0
  -23.1390   19.1840   -6.9780 C   0  0  2  0  0  0  0  0  0  0  0  0
  -23.0410   19.8760   -8.3430 C   0  0  0  0  0  0  0  0  0  0  0  0
  -24.0220   19.9350   -9.0840 O   0  0  0  0  0  0  0  0  0  0  0  0
  -23.7910   20.1300   -5.9670 C   0  0  0  0  0  0  0  0  0  0  0  0
  -24.1360   19.4870   -4.6300 C   0  0  0  0  0  0  0  0  0  0  0  0
  -23.0020   19.5770   -3.6260 C   0  0  0  0  0  0  0  0  0  0  0  0
  -21.9250   19.0200   -3.8360 O   0  0  0  0  0  0  0  0  0  0  0  0
  -23.2400   20.2870   -2.5300 N   0  0  0  0  0  0  0  0  0  0  0  0
  -21.8610   20.3980   -8.6680 N   0  0  0  0  0  0  0  0  0  0  0  0
  -21.5980   20.9050  -10.0040 C   0  0  0  0  0  0  0  0  0  0  0  0
  -21.1020   22.3370  -10.0660 C   0  0  0  0  0  0  0  0  0  0  0  0
  -20.6730   22.8060  -11.1210 O   0  0  0  0  0  0  0  0  0  0  0  0
  -21.1540   23.0350   -8.9370 N   0  0  0  0  0  0  0  0  0  0  0  0
  -20.7950   24.4480   -8.9000 C   0  0  2  0  0  0  0  0  0  0  0  0
  -19.2890   24.6610   -8.7400 C   0  0  0  0  0  0  0  0  0  0  0  0
  -18.4950   24.1330   -9.5180 O   0  0  0  0  0  0  0  0  0  0  0  0
  -21.5410   25.1710   -7.7670 C   0  0  2  0  0  0  0  0  0  0  0  0
  -21.5210   24.3530   -6.5910 O   0  0  0  0  0  0  0  0  0  0  0  0
  -22.9870   25.4220   -8.1640 C   0  0  0  0  0  0  0  0  0  0  0  0
  -10.6710    3.9190  -14.9420 N   0  0  0  0  0  0  0  0  0  0  0  0
  -10.5500    4.4160  -16.3080 C   0  0  2  0  0  0  0  0  0  0  0  0
   -9.3370    3.7570  -16.9480 C   0  0  0  0  0  0  0  0  0  0  0  0
   -8.2830    3.6440  -16.3240 O   0  0  0  0  0  0  0  0  0  0  0  0
  -10.3970    5.9510  -16.3730 C   0  0  2  0  0  0  0  0  0  0  0  0
   -9.1440    6.3340  -15.7940 O   0  0  0  0  0  0  0  0  0  0  0  0
  -11.5300    6.6400  -15.6300 C   0  0  0  0  0  0  0  0  0  0  0  0
  -13.8060    7.9490  -11.2150 N   0  0  0  0  0  0  0  0  0  0  0  0
  -14.9100    8.5460  -10.4910 C   0  0  0  0  0  0  0  0  0  0  0  0
  -15.0150   10.0320  -10.7600 C   0  0  0  0  0  0  0  0  0  0  0  0
  -14.2390   10.5860  -11.5370 O   0  0  0  0  0  0  0  0  0  0  0  0
  -15.9740   10.6800  -10.1070 N   0  0  0  0  0  0  0  0  0  0  0  0
  -16.2340   12.0890  -10.3320 C   0  0  0  0  0  0  0  0  0  0  0  0
  -17.6450   12.2770  -10.8510 C   0  0  0  0  0  0  0  0  0  0  0  0
  -18.3090   13.2660  -10.5390 O   0  0  0  0  0  0  0  0  0  0  0  0
  -18.0990   11.3190  -11.6520 N   0  0  0  0  0  0  0  0  0  0  0  0
  -19.4770   11.2960  -12.1200 C   0  0  2  0  0  0  0  0  0  0  0  0
  -20.3230   10.5170  -11.1240 C   0  0  0  0  0  0  0  0  0  0  0  0
  -20.4140    9.2930  -11.1970 O   0  0  0  0  0  0  0  0  0  0  0  0
  -19.5680   10.6790  -13.5200 C   0  0  0  0  0  0  0  0  0  0  0  0
  -20.9470   10.8330  -14.1460 C   0  0  0  0  0  0  0  0  0  0  0  0
  -21.9270   11.1340  -13.4640 O   0  0  0  0  0  0  0  0  0  0  0  0
  -21.0270   10.6150  -15.4550 N   0  0  0  0  0  0  0  0  0  0  0  0
  -20.9400   11.2390  -10.1940 N   0  0  0  0  0  0  0  0  0  0  0  0
  -21.6660   10.6270   -9.0860 C   0  0  2  0  0  0  0  0  0  0  0  0
  -22.8830    9.8370   -9.5670 C   0  0  0  0  0  0  0  0  0  0  0  0
  -23.3780    8.9530   -8.8630 O   0  0  0  0  0  0  0  0  0  0  0  0
  -22.0980   11.7030   -8.0620 C   0  0  2  0  0  0  0  0  0  0  0  0
  -20.8890   12.5480   -7.6630 C   0  0  0  0  0  0  0  0  0  0  0  0
  -22.7010   11.0750   -6.8200 C   0  0  0  0  0  0  0  0  0  0  0  0
  -19.7210   11.7260   -7.1440 C   0  0  0  0  0  0  0  0  0  0  0  0
  2  1  1  6
  3  2  1  0
  4  3  2  0
  5  2  1  0
  6  5  1  0
  7  6  2  0
  8  6  1  0
  9  3  1  0
 10  9  1  0
 11 10  1  0
 12 11  2  0
 10 13  1  6
 14 11  1  0
 15 14  1  0
 16 15  1  0
 17 16  2  0
 15 18  1  6
 19 18  1  0
 20 19  1  0
 21 20  1  0
 22 21  1  0
 23 16  1  0
 24 23  1  6
 25 24  1  0
 26 25  2  0
 27 24  1  0
 28 27  1  0
 27 29  1  1
 31 30  1  1
 32 31  1  0
 33 32  2  0
 34 31  1  0
 35 34  1  0
 36 32  1  0
 37 36  1  0
 38 37  1  0
 39 38  2  0
 40 38  1  0
 41 40  1  0
 42 41  1  0
 43 42  2  0
 44 42  1  0
 45 44  1  0
 46 45  1  0
 47 46  2  0
 45 48  1  6
 49 48  1  0
 50 49  2  0
 51 49  1  0
 53 52  1  6
 54 53  1  0
 55 54  2  0
 56 53  1  0
 57 56  1  0
 58 57  1  0
 59 58  2  0
 60 58  1  0
 61 54  1  0
 62 61  1  1
 63 62  1  0
 64 63  2  0
 65 62  1  0
 66 65  1  0
 65 67  1  1
 68 66  1  0
 70 69  1  6
 71 70  1  0
 72 71  2  0
 73 70  1  0
 74 73  1  0
 75 74  1  0
 76 74  2  0
 77 75  2  0
 78 77  1  0
 78 76  1  0
 80 79  1  1
 81 80  1  0
 82 81  2  0
 83 80  1  0
 84 83  1  0
 85 84  2  0
 86 84  1  0
 87 81  1  0
 88 87  1  0
 89 88  1  0
 90 89  2  0
 88 91  1  6
 92 91  1  0
 93 92  1  0
 94 93  1  0
 95 89  1  0
 96 95  1  0
 97 96  1  0
 98 97  2  0
 96 99  1  1
100 99  1  0
101100  2  0
102100  1  0
103101  1  0
104103  1  0
104102  2  0
105102  1  0
106104  1  0
107105  2  0
108107  1  0
108106  2  0
109 97  1  0
110109  1  0
111110  1  0
112111  2  0
110113  1  1
114113  1  0
115114  1  0
116115  2  0
117115  1  0
118111  1  0
119118  1  0
120119  1  0
121120  2  0
122120  1  0
123122  1  1
124123  1  0
125124  2  0
126123  1  0
127126  1  0
126128  1  6
130129  1  1
131130  1  0
132131  2  0
133130  1  0
134133  1  0
133135  1  1
137136  1  0
138137  1  0
139138  2  0
140138  1  0
141140  1  0
142141  1  0
143142  2  0
144142  1  0
145144  1  0
146145  1  0
147146  2  0
145148  1  6
149148  1  0
150149  2  0
151149  1  0
152146  1  0
153152  1  6
154153  1  0
155154  2  0
156153  1  0
157156  1  0
156158  1  1
159157  1  0
M  END
$$$$
