
     RDKit          3D

 71 68  0  0  0  0  0  0  0  0999 V2000
  -19.1140    0.4350  -22.8310 N   0  0  0  0  0  0  0  0  0  0  0  0
  -18.2720   -0.0030  -23.9400 C   0  0  2  0  0  0  0  0  0  0  0  0
  -16.7990   -0.0620  -23.5590 C   0  0  0  0  0  0  0  0  0  0  0  0
  -16.1110    0.9620  -23.5630 O   0  0  0  0  0  0  0  0  0  0  0  0
  -18.4480    0.9280  -25.1360 C   0  0  0  0  0  0  0  0  0  0  0  0
  -18.9200    0.2030  -26.3700 C   0  0  0  0  0  0  0  0  0  0  0  0
  -18.3580   -0.8200  -26.7620 O   0  0  0  0  0  0  0  0  0  0  0  0
  -19.9670    0.7270  -26.9880 N   0  0  0  0  0  0  0  0  0  0  0  0
  -14.2130   -1.0050  -25.0650 N   0  0  0  0  0  0  0  0  0  0  0  0
  -13.2700   -0.5620  -26.0860 C   0  0  2  0  0  0  0  0  0  0  0  0
  -13.1950    0.9650  -26.1620 C   0  0  0  0  0  0  0  0  0  0  0  0
  -12.3160    1.5150  -26.8220 O   0  0  0  0  0  0  0  0  0  0  0  0
  -13.6360   -1.1200  -27.4740 C   0  0  2  0  0  0  0  0  0  0  0  0
  -14.9650   -0.7110  -27.8200 O   0  0  0  0  0  0  0  0  0  0  0  0
  -13.5610   -2.6390  -27.4780 C   0  0  0  0  0  0  0  0  0  0  0  0
  -14.1170    1.6410  -25.4810 N   0  0  0  0  0  0  0  0  0  0  0  0
  -14.1590    3.1040  -25.4600 C   0  0  2  0  0  0  0  0  0  0  0  0
  -13.5190    3.6480  -24.1830 C   0  0  0  0  0  0  0  0  0  0  0  0
  -14.1250    3.5970  -23.1150 O   0  0  0  0  0  0  0  0  0  0  0  0
  -15.6110    3.5930  -25.5850 C   0  0  0  0  0  0  0  0  0  0  0  0
  -15.7210    5.1070  -25.7510 C   0  0  0  0  0  0  0  0  0  0  0  0
  -14.8530    5.8630  -25.3200 O   0  0  0  0  0  0  0  0  0  0  0  0
  -16.8080    5.5510  -26.3710 N   0  0  0  0  0  0  0  0  0  0  0  0
  -12.3070    4.1860  -24.2970 N   0  0  0  0  0  0  0  0  0  0  0  0
  -11.5480    4.6080  -23.1190 C   0  0  2  0  0  0  0  0  0  0  0  0
  -12.1580    5.8040  -22.3790 C   0  0  0  0  0  0  0  0  0  0  0  0
  -11.6840    6.1800  -21.3070 O   0  0  0  0  0  0  0  0  0  0  0  0
  -10.0910    4.9220  -23.5080 C   0  0  0  0  0  0  0  0  0  0  0  0
   -9.9530    6.1710  -24.3810 C   0  0  0  0  0  0  0  0  0  0  0  0
  -10.4470    7.2470  -24.0430 O   0  0  0  0  0  0  0  0  0  0  0  0
   -9.2580    6.0290  -25.5060 N   0  0  0  0  0  0  0  0  0  0  0  0
   -9.4880    3.3220  -18.1940 N   0  0  0  0  0  0  0  0  0  0  0  0
   -8.4260    2.6010  -18.8800 C   0  0  2  0  0  0  0  0  0  0  0  0
   -7.6540    3.5340  -19.8070 C   0  0  0  0  0  0  0  0  0  0  0  0
   -8.2490    4.3360  -20.5270 O   0  0  0  0  0  0  0  0  0  0  0  0
   -9.0090    1.4220  -19.6640 C   0  0  0  0  0  0  0  0  0  0  0  0
   -7.9830    0.5670  -20.3900 C   0  0  0  0  0  0  0  0  0  0  0  0
   -8.6710   -0.4590  -21.2830 C   0  0  0  0  0  0  0  0  0  0  0  0
   -9.5330    0.1780  -22.2770 N   0  0  0  0  0  0  0  0  0  0  0  0
   -9.1230    0.5720  -23.4790 C   0  0  0  0  0  0  0  0  0  0  0  0
   -7.8610    0.3870  -23.8440 N   0  0  0  0  0  0  0  0  0  0  0  0
   -9.9740    1.1470  -24.3200 N   0  0  0  0  0  0  0  0  0  0  0  0
   -6.3280    3.4280  -19.7800 N   0  0  0  0  0  0  0  0  0  0  0  0
   -5.4740    4.2620  -20.6180 C   0  0  2  0  0  0  0  0  0  0  0  0
   -5.7190    4.0000  -22.1000 C   0  0  0  0  0  0  0  0  0  0  0  0
   -5.7600    2.8490  -22.5350 O   0  0  0  0  0  0  0  0  0  0  0  0
   -3.9980    4.0220  -20.2890 C   0  0  0  0  0  0  0  0  0  0  0  0
   -3.5910    4.6180  -18.9560 C   0  0  0  0  0  0  0  0  0  0  0  0
   -4.4850    4.9270  -18.1440 O   0  0  0  0  0  0  0  0  0  0  0  0
   -2.3740    4.7730  -18.7200 O   0  0  0  0  0  0  0  0  0  0  0  0
   -5.8830    5.0690  -22.8720 N   0  0  0  0  0  0  0  0  0  0  0  0
   -6.0150    4.9440  -24.3110 C   0  0  0  0  0  0  0  0  0  0  0  0
   -4.6750    5.1480  -24.9850 C   0  0  0  0  0  0  0  0  0  0  0  0
   -3.6510    5.2800  -24.3160 O   0  0  0  0  0  0  0  0  0  0  0  0
   -4.6740    5.1750  -26.3130 N   0  0  0  0  0  0  0  0  0  0  0  0
   -3.4640    5.4830  -27.0490 C   0  0  0  0  0  0  0  0  0  0  0  0
   -3.0870    4.4140  -28.0470 C   0  0  0  0  0  0  0  0  0  0  0  0
   -3.3700    3.2340  -27.8410 O   0  0  0  0  0  0  0  0  0  0  0  0
   -2.4390    4.8390  -29.1280 N   0  0  0  0  0  0  0  0  0  0  0  0
   -2.0500    3.9440  -30.2120 C   0  0  2  0  0  0  0  0  0  0  0  0
   -0.7050    3.2760  -29.9430 C   0  0  0  0  0  0  0  0  0  0  0  0
    0.2060    3.3340  -30.7700 O   0  0  0  0  0  0  0  0  0  0  0  0
   -2.0070    4.7050  -31.5340 C   0  0  0  0  0  0  0  0  0  0  0  0
   -0.5860    2.6440  -28.7810 N   0  0  0  0  0  0  0  0  0  0  0  0
    0.5990    1.8650  -28.4520 C   0  0  2  0  0  0  0  0  0  0  0  0
    0.5320    0.4840  -29.0980 C   0  0  0  0  0  0  0  0  0  0  0  0
   -0.2390    0.2680  -30.0340 O   0  0  0  0  0  0  0  0  0  0  0  0
    0.7500    1.7450  -26.9380 C   0  0  0  0  0  0  0  0  0  0  0  0
   -0.5500    1.3800  -26.2570 C   0  0  0  0  0  0  0  0  0  0  0  0
   -1.4150    2.2310  -26.0460 O   0  0  0  0  0  0  0  0  0  0  0  0
   -0.7000    0.1090  -25.9110 N   0  0  0  0  0  0  0  0  0  0  0  0
  2  1  1  1
  3  2  1  0
  4  3  2  0
  5  2  1  0
  6  5  1  0
  7  6  2  0
  8  6  1  0
 10  9  1  1
 11 10  1  0
 12 11  2  0
 13 10  1  0
 14 13  1  0
 13 15  1  1
 16 11  1  0
 17 16  1  0
 18 17  1  0
 19 18  2  0
 17 20  1  1
 21 20  1  0
 22 21  2  0
 23 21  1  0
 24 18  1  0
 25 24  1  0
 26 25  1  0
 27 26  2  0
 25 28  1  6
 29 28  1  0
 30 29  2  0
 31 29  1  0
 33 32  1  6
 34 33  1  0
 35 34  2  0
 36 33  1  0
 37 36  1  0
 38 37  1  0
 39 38  1  0
 40 39  1  0
 41 40  1  0
 42 40  2  0
 43 34  1  0
 44 43  1  0
 45 44  1  0
 46 45  2  0
 44 47  1  1
 48 47  1  0
 49 48  2  0
 50 48  1  0
 51 45  1  0
 52 51  1  0
 53 52  1  0
 54 53  2  0
 55 53  1  0
 56 55  1  0
 57 56  1  0
 58 57  2  0
 59 57  1  0
 60 59  1  0
 61 60  1  0
 62 61  2  0
 60 63  1  6
 64 61  1  0
 65 64  1  0
 66 65  1  0
 67 66  2  0
 65 68  1  1
 69 68  1  0
 70 69  2  0
 71 69  1  0
M  END
$$$$
