
     RDKit          3D

141140  0  0  0  0  0  0  0  0999 V2000
  -35.5710  -40.6730  -38.1420 N   0  0  0  0  0  0  0  0  0  0  0  0
  -35.1640  -39.2960  -38.4250 C   0  0  2  0  0  0  0  0  0  0  0  0
  -36.3380  -38.5620  -39.0390 C   0  0  0  0  0  0  0  0  0  0  0  0
  -36.9660  -39.0760  -39.9780 O   0  0  0  0  0  0  0  0  0  0  0  0
  -33.9510  -39.2550  -39.3620 C   0  0  0  0  0  0  0  0  0  0  0  0
  -33.4500  -37.8620  -39.6810 C   0  0  0  0  0  0  0  0  0  0  0  0
  -32.5150  -37.2300  -38.8630 C   0  0  0  0  0  0  0  0  0  0  0  0
  -33.8660  -37.1970  -40.8300 C   0  0  0  0  0  0  0  0  0  0  0  0
  -32.0190  -35.9630  -39.1710 C   0  0  0  0  0  0  0  0  0  0  0  0
  -33.3830  -35.9290  -41.1460 C   0  0  0  0  0  0  0  0  0  0  0  0
  -32.4480  -35.3170  -40.3200 C   0  0  0  0  0  0  0  0  0  0  0  0
  -31.9550  -34.0710  -40.6520 O   0  0  0  0  0  0  0  0  0  0  0  0
  -37.4920  -35.2000  -40.9440 N   0  0  0  0  0  0  0  0  0  0  0  0
  -36.9480  -34.1760  -41.8370 C   0  0  2  0  0  0  0  0  0  0  0  0
  -37.2640  -32.7470  -41.3760 C   0  0  0  0  0  0  0  0  0  0  0  0
  -36.3620  -31.9130  -41.4370 O   0  0  0  0  0  0  0  0  0  0  0  0
  -37.3690  -34.4200  -43.2940 C   0  0  0  0  0  0  0  0  0  0  0  0
  -36.8110  -35.7350  -43.8720 C   0  0  0  0  0  0  0  0  0  0  0  0
  -37.1130  -35.8860  -45.3530 C   0  0  0  0  0  0  0  0  0  0  0  0
  -36.3640  -37.0220  -45.9880 C   0  0  0  0  0  0  0  0  0  0  0  0
  -36.5490  -37.0430  -47.4640 N   0  0  0  0  0  0  0  0  0  0  0  0
  -35.4020  -32.2270  -37.9160 N   0  0  0  0  0  0  0  0  0  0  0  0
  -33.9540  -32.3840  -38.1310 C   0  0  2  0  0  0  0  0  0  0  0  0
  -33.2820  -33.2060  -37.0510 C   0  0  0  0  0  0  0  0  0  0  0  0
  -32.1970  -32.8510  -36.6030 O   0  0  0  0  0  0  0  0  0  0  0  0
  -33.2560  -31.0220  -38.2870 C   0  0  0  0  0  0  0  0  0  0  0  0
  -33.4090  -30.3480  -39.6270 C   0  0  0  0  0  0  0  0  0  0  0  0
  -32.5220  -30.6170  -40.6650 C   0  0  0  0  0  0  0  0  0  0  0  0
  -34.4110  -29.4130  -39.8400 C   0  0  0  0  0  0  0  0  0  0  0  0
  -32.6400  -29.9650  -41.8940 C   0  0  0  0  0  0  0  0  0  0  0  0
  -34.5400  -28.7750  -41.0750 C   0  0  0  0  0  0  0  0  0  0  0  0
  -33.6470  -29.0480  -42.0880 C   0  0  0  0  0  0  0  0  0  0  0  0
  -31.3960  -41.6160  -44.5810 N   0  0  0  0  0  0  0  0  0  0  0  0
  -31.1330  -40.2020  -44.8370 C   0  0  2  0  0  0  0  0  0  0  0  0
  -29.6330  -39.9690  -44.9280 C   0  0  0  0  0  0  0  0  0  0  0  0
  -28.9020  -40.2720  -43.9770 O   0  0  0  0  0  0  0  0  0  0  0  0
  -31.8570  -39.3000  -43.7730 C   0  0  2  0  0  0  0  0  0  0  0  0
  -33.2330  -38.8480  -44.2670 C   0  0  0  0  0  0  0  0  0  0  0  0
  -31.0480  -38.0770  -43.3570 C   0  0  0  0  0  0  0  0  0  0  0  0
  -34.3150  -39.8000  -44.0150 C   0  0  0  0  0  0  0  0  0  0  0  0
  -29.1750  -39.4720  -46.0850 N   0  0  0  0  0  0  0  0  0  0  0  0
  -27.7650  -39.1360  -46.2840 C   0  0  2  0  0  0  0  0  0  0  0  0
  -27.6610  -37.6440  -46.6420 C   0  0  0  0  0  0  0  0  0  0  0  0
  -28.4150  -37.1550  -47.4910 O   0  0  0  0  0  0  0  0  0  0  0  0
  -27.0880  -39.9970  -47.3660 C   0  0  0  0  0  0  0  0  0  0  0  0
  -27.1160  -41.4920  -47.1450 C   0  0  0  0  0  0  0  0  0  0  0  0
  -28.1530  -42.2720  -47.6500 C   0  0  0  0  0  0  0  0  0  0  0  0
  -26.0580  -42.1440  -46.5220 C   0  0  0  0  0  0  0  0  0  0  0  0
  -28.1550  -43.6630  -47.5060 C   0  0  0  0  0  0  0  0  0  0  0  0
  -26.0430  -43.5350  -46.3780 C   0  0  0  0  0  0  0  0  0  0  0  0
  -27.0980  -44.2910  -46.8670 C   0  0  0  0  0  0  0  0  0  0  0  0
  -27.0930  -45.6590  -46.7430 O   0  0  0  0  0  0  0  0  0  0  0  0
  -26.7410  -36.9270  -45.9790 N   0  0  0  0  0  0  0  0  0  0  0  0
  -26.4990  -35.5000  -46.1810 C   0  0  2  0  0  0  0  0  0  0  0  0
  -24.9760  -35.2520  -46.2000 C   0  0  0  0  0  0  0  0  0  0  0  0
  -24.2430  -35.9850  -45.5330 O   0  0  0  0  0  0  0  0  0  0  0  0
  -27.1340  -34.7010  -45.0380 C   0  0  0  0  0  0  0  0  0  0  0  0
  -28.6390  -34.5350  -45.1070 C   0  0  0  0  0  0  0  0  0  0  0  0
  -29.1930  -33.9590  -43.7880 C   0  0  0  0  0  0  0  0  0  0  0  0
  -30.5020  -33.2120  -43.9210 C   0  0  0  0  0  0  0  0  0  0  0  0
  -30.3320  -31.8520  -44.5360 N   0  0  0  0  0  0  0  0  0  0  0  0
  -24.5050  -34.2410  -46.9590 N   0  0  0  0  0  0  0  0  0  0  0  0
  -23.0880  -33.8720  -47.0560 C   0  0  2  0  0  0  0  0  0  0  0  0
  -22.8960  -32.4380  -46.5060 C   0  0  0  0  0  0  0  0  0  0  0  0
  -23.8420  -31.6360  -46.5730 O   0  0  0  0  0  0  0  0  0  0  0  0
  -22.5870  -33.9720  -48.5280 C   0  0  0  0  0  0  0  0  0  0  0  0
  -23.2260  -32.9430  -49.4230 C   0  0  0  0  0  0  0  0  0  0  0  0
  -22.7080  -31.6560  -49.5170 C   0  0  0  0  0  0  0  0  0  0  0  0
  -24.4280  -33.2070  -50.0670 C   0  0  0  0  0  0  0  0  0  0  0  0
  -23.3910  -30.6490  -50.1950 C   0  0  0  0  0  0  0  0  0  0  0  0
  -25.0880  -32.2240  -50.8000 C   0  0  0  0  0  0  0  0  0  0  0  0
  -24.5700  -30.9430  -50.8570 C   0  0  0  0  0  0  0  0  0  0  0  0
  -25.2380  -29.9650  -51.5510 O   0  0  0  0  0  0  0  0  0  0  0  0
  -21.7370  -28.4310  -46.6000 N   0  0  0  0  0  0  0  0  0  0  0  0
  -21.5450  -27.2820  -47.4870 C   0  0  2  0  0  0  0  0  0  0  0  0
  -20.1420  -26.7470  -47.3500 C   0  0  0  0  0  0  0  0  0  0  0  0
  -19.3640  -27.2130  -46.5140 O   0  0  0  0  0  0  0  0  0  0  0  0
  -22.4700  -26.1440  -47.0280 C   0  0  0  0  0  0  0  0  0  0  0  0
  -23.7770  -26.0820  -47.7640 C   0  0  0  0  0  0  0  0  0  0  0  0
  -23.7500  -25.9240  -49.0070 O   0  0  0  0  0  0  0  0  0  0  0  0
  -24.8340  -26.1690  -47.1020 O   0  0  0  0  0  0  0  0  0  0  0  0
  -22.7350  -26.6020  -43.7470 N   0  0  0  0  0  0  0  0  0  0  0  0
  -24.1340  -26.9530  -43.5380 C   0  0  2  0  0  0  0  0  0  0  0  0
  -24.5080  -28.3040  -44.1940 C   0  0  0  0  0  0  0  0  0  0  0  0
  -24.1680  -28.5510  -45.3510 O   0  0  0  0  0  0  0  0  0  0  0  0
  -25.0520  -25.8220  -43.9930 C   0  0  0  0  0  0  0  0  0  0  0  0
  -26.3600  -25.7750  -43.2280 C   0  0  0  0  0  0  0  0  0  0  0  0
  -27.4580  -24.9700  -43.8930 C   0  0  0  0  0  0  0  0  0  0  0  0
  -27.2250  -23.7760  -44.1920 O   0  0  0  0  0  0  0  0  0  0  0  0
  -28.5590  -25.5310  -44.1050 O   0  0  0  0  0  0  0  0  0  0  0  0
  -26.2800  -30.2760  -46.2910 N   0  0  0  0  0  0  0  0  0  0  0  0
  -27.2730  -30.2440  -47.3660 C   0  0  2  0  0  0  0  0  0  0  0  0
  -27.6340  -31.7020  -47.8280 C   0  0  0  0  0  0  0  0  0  0  0  0
  -26.8230  -32.6040  -47.6210 O   0  0  0  0  0  0  0  0  0  0  0  0
  -26.8770  -29.2750  -48.4940 C   0  0  0  0  0  0  0  0  0  0  0  0
  -27.9750  -28.1970  -48.6640 C   0  0  0  0  0  0  0  0  0  0  0  0
  -27.5190  -26.7760  -48.9180 C   0  0  0  0  0  0  0  0  0  0  0  0
  -26.9110  -26.6390  -50.2390 N   0  0  0  0  0  0  0  0  0  0  0  0
  -26.5750  -25.4840  -50.8040 C   0  0  0  0  0  0  0  0  0  0  0  0
  -26.8000  -24.3370  -50.1740 N   0  0  0  0  0  0  0  0  0  0  0  0
  -26.0050  -25.4680  -52.0010 N   0  0  0  0  0  0  0  0  0  0  0  0
  -28.8490  -32.0130  -48.3340 N   0  0  0  0  0  0  0  0  0  0  0  0
  -29.1640  -33.4180  -48.6310 C   0  0  2  0  0  0  0  0  0  0  0  0
  -28.4990  -34.0150  -49.8570 C   0  0  0  0  0  0  0  0  0  0  0  0
  -28.2520  -33.3060  -50.8220 O   0  0  0  0  0  0  0  0  0  0  0  0
  -30.6880  -33.3990  -48.7990 C   0  0  0  0  0  0  0  0  0  0  0  0
  -30.9820  -32.0520  -49.3020 C   0  0  0  0  0  0  0  0  0  0  0  0
  -30.0190  -31.1510  -48.5900 C   0  0  0  0  0  0  0  0  0  0  0  0
  -28.2960  -35.3340  -49.8480 N   0  0  0  0  0  0  0  0  0  0  0  0
  -27.7580  -36.0390  -51.0070 C   0  0  2  0  0  0  0  0  0  0  0  0
  -28.8490  -36.2190  -52.0710 C   0  0  0  0  0  0  0  0  0  0  0  0
  -30.0340  -36.0700  -51.7650 O   0  0  0  0  0  0  0  0  0  0  0  0
  -27.1530  -37.3800  -50.5980 C   0  0  0  0  0  0  0  0  0  0  0  0
  -25.5410  -37.2480  -49.7760 S   0  0  0  0  0  0  0  0  0  0  0  0
  -28.4490  -36.5430  -53.3180 N   0  0  0  0  0  0  0  0  0  0  0  0
  -29.3650  -36.8200  -54.4270 C   0  0  2  0  0  0  0  0  0  0  0  0
  -30.0970  -38.1340  -54.1010 C   0  0  0  0  0  0  0  0  0  0  0  0
  -29.4920  -39.0230  -53.5020 O   0  0  0  0  0  0  0  0  0  0  0  0
  -28.5610  -36.9670  -55.7210 C   0  0  0  0  0  0  0  0  0  0  0  0
  -29.3940  -37.1700  -56.9430 C   0  0  0  0  0  0  0  0  0  0  0  0
  -29.6130  -36.1440  -57.8390 N   0  0  0  0  0  0  0  0  0  0  0  0
  -30.0150  -38.2840  -57.3940 C   0  0  0  0  0  0  0  0  0  0  0  0
  -30.3640  -36.6580  -58.7990 C   0  0  0  0  0  0  0  0  0  0  0  0
  -30.6360  -37.9420  -58.5690 N   0  0  0  0  0  0  0  0  0  0  0  0
  -31.3830  -38.2540  -54.4780 N   0  0  0  0  0  0  0  0  0  0  0  0
  -32.2360  -39.4270  -54.2170 C   0  0  2  0  0  0  0  0  0  0  0  0
  -31.6260  -40.7760  -54.6010 C   0  0  0  0  0  0  0  0  0  0  0  0
  -31.8600  -41.7820  -53.9140 O   0  0  0  0  0  0  0  0  0  0  0  0
  -33.6110  -39.2760  -54.8890 C   0  0  0  0  0  0  0  0  0  0  0  0
  -33.5650  -38.9190  -56.3690 C   0  0  0  0  0  0  0  0  0  0  0  0
  -33.7090  -37.4440  -56.6860 C   0  0  0  0  0  0  0  0  0  0  0  0
  -33.2020  -36.6060  -55.9070 O   0  0  0  0  0  0  0  0  0  0  0  0
  -34.3170  -37.1270  -57.7320 O   0  0  0  0  0  0  0  0  0  0  0  0
  -30.8540  -40.7880  -55.6990 N   0  0  0  0  0  0  0  0  0  0  0  0
  -30.2440  -41.9950  -56.2370 C   0  0  2  0  0  0  0  0  0  0  0  0
  -28.9610  -42.4140  -55.5070 C   0  0  0  0  0  0  0  0  0  0  0  0
  -28.5420  -43.5640  -55.6660 O   0  0  0  0  0  0  0  0  0  0  0  0
  -30.0450  -41.8880  -57.7460 C   0  0  0  0  0  0  0  0  0  0  0  0
  -31.2680  -41.4070  -58.5030 C   0  0  0  0  0  0  0  0  0  0  0  0
  -31.1660  -40.5570  -59.3920 O   0  0  0  0  0  0  0  0  0  0  0  0
  -32.4560  -41.9280  -58.1770 N   0  0  0  0  0  0  0  0  0  0  0  0
  2  1  1  6
  3  2  1  0
  4  3  2  0
  5  2  1  0
  6  5  1  0
  7  6  2  0
  8  6  1  0
  9  7  1  0
 10  8  2  0
 11 10  1  0
 11  9  2  0
 12 11  1  0
 14 13  1  1
 15 14  1  0
 16 15  2  0
 17 14  1  0
 18 17  1  0
 19 18  1  0
 20 19  1  0
 21 20  1  0
 23 22  1  1
 24 23  1  0
 25 24  2  0
 26 23  1  0
 27 26  1  0
 28 27  2  0
 29 27  1  0
 30 28  1  0
 31 29  2  0
 32 31  1  0
 32 30  2  0
 34 33  1  1
 35 34  1  0
 36 35  2  0
 37 34  1  0
 38 37  1  0
 37 39  1  6
 40 38  1  0
 41 35  1  0
 42 41  1  0
 43 42  1  0
 44 43  2  0
 42 45  1  6
 46 45  1  0
 47 46  2  0
 48 46  1  0
 49 47  1  0
 50 48  2  0
 51 49  2  0
 51 50  1  0
 52 51  1  0
 53 43  1  0
 54 53  1  0
 55 54  1  0
 56 55  2  0
 54 57  1  1
 58 57  1  0
 59 58  1  0
 60 59  1  0
 61 60  1  0
 62 55  1  0
 63 62  1  0
 64 63  1  0
 65 64  2  0
 63 66  1  6
 67 66  1  0
 68 67  2  0
 69 67  1  0
 70 68  1  0
 71 69  2  0
 72 71  1  0
 72 70  2  0
 73 72  1  0
 75 74  1  1
 76 75  1  0
 77 76  2  0
 78 75  1  0
 79 78  1  0
 80 79  2  0
 81 79  1  0
 83 82  1  6
 84 83  1  0
 85 84  2  0
 86 83  1  0
 87 86  1  0
 88 87  1  0
 89 88  2  0
 90 88  1  0
 92 91  1  1
 93 92  1  0
 94 93  2  0
 95 92  1  0
 96 95  1  0
 97 96  1  0
 98 97  1  0
 99 98  1  0
100 99  1  0
101 99  2  0
102 93  1  0
103102  1  0
103104  1  6
105104  2  0
106103  1  0
107106  1  0
108107  1  0
108102  1  0
109104  1  0
110109  1  0
111110  1  0
112111  2  0
110113  1  1
114113  1  0
115111  1  0
116115  1  0
117116  1  0
118117  2  0
116119  1  6
120119  1  0
121120  1  0
122120  2  0
123121  2  0
124122  1  0
124123  1  0
125117  1  0
126125  1  0
127126  1  0
128127  2  0
126129  1  6
130129  1  0
131130  1  0
132131  2  0
133131  1  0
134127  1  0
135134  1  0
136135  1  0
137136  2  0
135138  1  6
139138  1  0
140139  2  0
141139  1  0
M  END
$$$$
