
     RDKit          3D

131131  0  0  0  0  0  0  0  0999 V2000
  -32.8030    9.9430    7.6930 N   0  0  0  0  0  0  0  0  0  0  0  0
  -31.7510   10.9280    7.4780 C   0  0  2  0  0  0  0  0  0  0  0  0
  -32.3830   12.3120    7.4250 C   0  0  0  0  0  0  0  0  0  0  0  0
  -33.0350   12.6700    6.4480 O   0  0  0  0  0  0  0  0  0  0  0  0
  -30.9470   10.6680    6.1940 C   0  0  2  0  0  0  0  0  0  0  0  0
  -30.7180    9.2650    6.0490 O   0  0  0  0  0  0  0  0  0  0  0  0
  -29.6070   11.3800    6.2580 C   0  0  0  0  0  0  0  0  0  0  0  0
  -32.2060   13.0700    8.5020 N   0  0  0  0  0  0  0  0  0  0  0  0
  -32.7250   14.4260    8.5870 C   0  0  2  0  0  0  0  0  0  0  0  0
  -31.9270   15.3200    7.6660 C   0  0  0  0  0  0  0  0  0  0  0  0
  -30.7260   15.0990    7.4900 O   0  0  0  0  0  0  0  0  0  0  0  0
  -32.5880   14.9550   10.0120 C   0  0  0  0  0  0  0  0  0  0  0  0
  -33.3140   14.2080   11.1290 C   0  0  0  0  0  0  0  0  0  0  0  0
  -32.6820   14.5790   12.4580 C   0  0  0  0  0  0  0  0  0  0  0  0
  -34.8060   14.5080   11.1250 C   0  0  0  0  0  0  0  0  0  0  0  0
  -32.5820   16.3300    7.0880 N   0  0  0  0  0  0  0  0  0  0  0  0
  -31.8730   17.3170    6.2570 C   0  0  2  0  0  0  0  0  0  0  0  0
  -31.5530   18.5690    7.0510 C   0  0  0  0  0  0  0  0  0  0  0  0
  -32.3750   19.0550    7.8430 O   0  0  0  0  0  0  0  0  0  0  0  0
  -32.6100   17.6440    4.9430 C   0  0  0  0  0  0  0  0  0  0  0  0
  -33.8630   18.4750    5.0970 C   0  0  0  0  0  0  0  0  0  0  0  0
  -35.1120   17.8710    5.1690 C   0  0  0  0  0  0  0  0  0  0  0  0
  -33.8030   19.8590    5.1000 C   0  0  0  0  0  0  0  0  0  0  0  0
  -36.2700   18.6280    5.2720 C   0  0  0  0  0  0  0  0  0  0  0  0
  -34.9580   20.6210    5.2050 C   0  0  0  0  0  0  0  0  0  0  0  0
  -36.1940   20.0030    5.2910 C   0  0  0  0  0  0  0  0  0  0  0  0
  -30.3390   19.0690    6.8460 N   0  0  0  0  0  0  0  0  0  0  0  0
  -29.8520   20.2290    7.5760 C   0  0  2  0  0  0  0  0  0  0  0  0
  -30.1900   21.5120    6.8230 C   0  0  0  0  0  0  0  0  0  0  0  0
  -30.3560   21.5010    5.6000 O   0  0  0  0  0  0  0  0  0  0  0  0
  -28.3410   20.1220    7.8060 C   0  0  0  0  0  0  0  0  0  0  0  0
  -27.3620   19.9430    6.2960 S   0  0  0  0  0  0  0  0  0  0  0  0
  -18.8840   23.7040    4.3410 N   0  0  0  0  0  0  0  0  0  0  0  0
  -19.6260   22.4620    4.5640 C   0  0  2  0  0  0  0  0  0  0  0  0
  -21.1340   22.6880    4.4250 C   0  0  0  0  0  0  0  0  0  0  0  0
  -21.8440   21.8200    3.9160 O   0  0  0  0  0  0  0  0  0  0  0  0
  -19.3040   21.8730    5.9430 C   0  0  0  0  0  0  0  0  0  0  0  0
  -20.0360   20.5860    6.2420 C   0  0  0  0  0  0  0  0  0  0  0  0
  -19.5870   19.3120    6.0310 C   0  0  0  0  0  0  0  0  0  0  0  0
  -21.3470   20.4590    6.8050 C   0  0  0  0  0  0  0  0  0  0  0  0
  -20.5370   18.4030    6.4250 N   0  0  0  0  0  0  0  0  0  0  0  0
  -21.6290   19.0800    6.9030 C   0  0  0  0  0  0  0  0  0  0  0  0
  -22.3120   21.3800    7.2360 C   0  0  0  0  0  0  0  0  0  0  0  0
  -22.8350   18.5970    7.4200 C   0  0  0  0  0  0  0  0  0  0  0  0
  -23.5060   20.9030    7.7500 C   0  0  0  0  0  0  0  0  0  0  0  0
  -23.7600   19.5230    7.8360 C   0  0  0  0  0  0  0  0  0  0  0  0
  -22.7460   23.0300    0.7340 N   0  0  0  0  0  0  0  0  0  0  0  0
  -22.5280   21.7590    0.0150 C   0  0  2  0  0  0  0  0  0  0  0  0
  -23.2850   20.5520    0.6010 C   0  0  0  0  0  0  0  0  0  0  0  0
  -23.0620   19.4180    0.1870 O   0  0  0  0  0  0  0  0  0  0  0  0
  -21.0240   21.4400   -0.0300 C   0  0  0  0  0  0  0  0  0  0  0  0
  -20.3010   22.0800   -1.1750 C   0  0  0  0  0  0  0  0  0  0  0  0
  -20.1130   21.4440   -2.3840 N   0  0  0  0  0  0  0  0  0  0  0  0
  -19.7130   23.2940   -1.2930 C   0  0  0  0  0  0  0  0  0  0  0  0
  -19.4420   22.2390   -3.1990 C   0  0  0  0  0  0  0  0  0  0  0  0
  -19.1870   23.3680   -2.5610 N   0  0  0  0  0  0  0  0  0  0  0  0
  -24.1710   20.8020    1.5570 N   0  0  0  0  0  0  0  0  0  0  0  0
  -24.9140   19.7410    2.2430 C   0  0  2  0  0  0  0  0  0  0  0  0
  -26.2570   20.2090    2.8140 C   0  0  0  0  0  0  0  0  0  0  0  0
  -27.1780   19.4060    2.9650 O   0  0  0  0  0  0  0  0  0  0  0  0
  -24.0600   19.1550    3.3550 C   0  0  0  0  0  0  0  0  0  0  0  0
  -26.3580   21.4990    3.1400 N   0  0  0  0  0  0  0  0  0  0  0  0
  -27.5480   22.0800    3.7690 C   0  0  2  0  0  0  0  0  0  0  0  0
  -28.2520   23.1080    2.8830 C   0  0  0  0  0  0  0  0  0  0  0  0
  -27.6610   23.6600    1.9520 O   0  0  0  0  0  0  0  0  0  0  0  0
  -27.1660   22.7360    5.1030 C   0  0  0  0  0  0  0  0  0  0  0  0
  -26.2620   21.6560    6.2450 S   0  0  0  0  0  0  0  0  0  0  0  0
  -29.5170   23.3650    3.2130 N   0  0  0  0  0  0  0  0  0  0  0  0
  -30.3860   24.2720    2.4560 C   0  0  2  0  0  0  0  0  0  0  0  0
  -30.6230   25.5750    3.2310 C   0  0  0  0  0  0  0  0  0  0  0  0
  -30.1530   25.7110    4.3600 O   0  0  0  0  0  0  0  0  0  0  0  0
  -31.7370   23.5900    2.1080 C   0  0  0  0  0  0  0  0  0  0  0  0
  -31.5270   22.5050    1.0600 C   0  0  0  0  0  0  0  0  0  0  0  0
  -32.4260   23.0260    3.3470 C   0  0  0  0  0  0  0  0  0  0  0  0
  -26.6810   11.4910   14.6110 N   0  0  0  0  0  0  0  0  0  0  0  0
  -26.5200   12.0240   13.2540 C   0  0  2  0  0  0  0  0  0  0  0  0
  -25.6470   13.2720   13.2560 C   0  0  0  0  0  0  0  0  0  0  0  0
  -24.7070   13.3910   12.4630 O   0  0  0  0  0  0  0  0  0  0  0  0
  -27.8740   12.3980   12.6450 C   0  0  0  0  0  0  0  0  0  0  0  0
  -28.7060   11.2370   12.1330 C   0  0  0  0  0  0  0  0  0  0  0  0
  -30.0080   11.7120   11.5120 C   0  0  0  0  0  0  0  0  0  0  0  0
  -30.0100   12.5880   10.6370 O   0  0  0  0  0  0  0  0  0  0  0  0
  -31.1260   11.1460   11.9660 N   0  0  0  0  0  0  0  0  0  0  0  0
  -21.9450   12.9290   13.5130 N   0  0  0  0  0  0  0  0  0  0  0  0
  -21.3010   12.6120   12.2370 C   0  0  2  0  0  0  0  0  0  0  0  0
  -21.0480   13.8530   11.3850 C   0  0  0  0  0  0  0  0  0  0  0  0
  -19.9790   13.9860   10.7930 O   0  0  0  0  0  0  0  0  0  0  0  0
  -22.1390   11.6090   11.4420 C   0  0  0  0  0  0  0  0  0  0  0  0
  -22.2070   10.2220   12.0630 C   0  0  0  0  0  0  0  0  0  0  0  0
  -23.0850    9.2710   11.2720 C   0  0  0  0  0  0  0  0  0  0  0  0
  -23.0720    9.3420   10.0230 O   0  0  0  0  0  0  0  0  0  0  0  0
  -23.7880    8.4540   11.9080 O   0  0  0  0  0  0  0  0  0  0  0  0
  -22.0270   14.7530   11.3280 N   0  0  0  0  0  0  0  0  0  0  0  0
  -21.9020   15.9960   10.5490 C   0  0  2  0  0  0  0  0  0  0  0  0
  -20.7810   16.9020   11.0620 C   0  0  0  0  0  0  0  0  0  0  0  0
  -20.0600   17.5050   10.2660 O   0  0  0  0  0  0  0  0  0  0  0  0
  -23.2270   16.7700   10.5340 C   0  0  0  0  0  0  0  0  0  0  0  0
  -24.2840   16.1110    9.6600 C   0  0  0  0  0  0  0  0  0  0  0  0
  -23.9250   15.4980    8.6300 O   0  0  0  0  0  0  0  0  0  0  0  0
  -25.4820   16.2170    9.9940 O   0  0  0  0  0  0  0  0  0  0  0  0
  -31.9660   21.0610   12.1260 N   0  0  0  0  0  0  0  0  0  0  0  0
  -32.1830   19.7320   11.5690 C   0  0  2  0  0  0  0  0  0  0  0  0
  -33.6730   19.5490   11.3180 C   0  0  0  0  0  0  0  0  0  0  0  0
  -34.4970   19.9220   12.1510 O   0  0  0  0  0  0  0  0  0  0  0  0
  -31.6050   18.6570   12.4920 C   0  0  0  0  0  0  0  0  0  0  0  0
  -30.1030   18.5070   12.3350 C   0  0  0  0  0  0  0  0  0  0  0  0
  -29.5590   17.4770   11.5640 C   0  0  0  0  0  0  0  0  0  0  0  0
  -29.2280   19.4150   12.9270 C   0  0  0  0  0  0  0  0  0  0  0  0
  -28.1870   17.3470   11.4050 C   0  0  0  0  0  0  0  0  0  0  0  0
  -27.8530   19.2910   12.7750 C   0  0  0  0  0  0  0  0  0  0  0  0
  -27.3350   18.2590   12.0130 C   0  0  0  0  0  0  0  0  0  0  0  0
  -25.9690   18.1430   11.8600 O   0  0  0  0  0  0  0  0  0  0  0  0
  -37.1480   17.3090    9.3370 N   0  0  0  0  0  0  0  0  0  0  0  0
  -37.7410   16.0550    8.8840 C   0  0  2  0  0  0  0  0  0  0  0  0
  -38.4000   16.1950    7.5110 C   0  0  0  0  0  0  0  0  0  0  0  0
  -39.2250   17.0920    7.3070 O   0  0  0  0  0  0  0  0  0  0  0  0
  -38.8130   15.5270    9.8650 C   0  0  2  0  0  0  0  0  0  0  0  0
  -39.3870   16.6230   10.5850 O   0  0  0  0  0  0  0  0  0  0  0  0
  -38.2160   14.5340   10.8420 C   0  0  0  0  0  0  0  0  0  0  0  0
  -38.0450   15.2980    6.5710 N   0  0  0  0  0  0  0  0  0  0  0  0
  -38.8080   15.1330    5.3430 C   0  0  2  0  0  0  0  0  0  0  0  0
  -40.2600   14.7650    5.6150 C   0  0  0  0  0  0  0  0  0  0  0  0
  -40.5860   14.3120    6.7040 O   0  0  0  0  0  0  0  0  0  0  0  0
  -38.0990   13.9620    4.6410 C   0  0  0  0  0  0  0  0  0  0  0  0
  -37.2530   13.3170    5.6830 C   0  0  0  0  0  0  0  0  0  0  0  0
  -36.8430   14.4470    6.5650 C   0  0  0  0  0  0  0  0  0  0  0  0
  -41.1190   14.9520    4.6210 N   0  0  0  0  0  0  0  0  0  0  0  0
  -42.5350   14.6230    4.7520 C   0  0  2  0  0  0  0  0  0  0  0  0
  -42.7110   13.1410    5.0540 C   0  0  0  0  0  0  0  0  0  0  0  0
  -41.9420   12.3060    4.5700 O   0  0  0  0  0  0  0  0  0  0  0  0
  -43.2880   15.0070    3.4870 C   0  0  0  0  0  0  0  0  0  0  0  0
  2  1  1  6
  3  2  1  0
  4  3  2  0
  5  2  1  0
  6  5  1  0
  5  7  1  1
  8  3  1  0
  9  8  1  0
 10  9  1  0
 11 10  2  0
  9 12  1  1
 13 12  1  0
 14 13  1  0
 15 13  1  0
 16 10  1  0
 17 16  1  0
 18 17  1  0
 19 18  2  0
 17 20  1  6
 21 20  1  0
 22 21  2  0
 23 21  1  0
 24 22  1  0
 25 23  2  0
 26 25  1  0
 26 24  2  0
 27 18  1  0
 28 27  1  0
 29 28  1  0
 30 29  2  0
 28 31  1  6
 32 31  1  0
 34 33  1  1
 35 34  1  0
 36 35  2  0
 37 34  1  0
 38 37  1  0
 39 38  2  0
 40 38  1  0
 41 39  1  0
 42 41  1  0
 42 40  2  0
 43 40  1  0
 44 42  1  0
 45 43  2  0
 46 45  1  0
 46 44  2  0
 48 47  1  1
 49 48  1  0
 50 49  2  0
 51 48  1  0
 52 51  1  0
 53 52  1  0
 54 52  2  0
 55 53  2  0
 56 55  1  0
 56 54  1  0
 57 49  1  0
 58 57  1  0
 59 58  1  0
 60 59  2  0
 58 61  1  1
 62 59  1  0
 63 62  1  0
 64 63  1  0
 65 64  2  0
 63 66  1  1
 67 32  1  0
 67 66  1  0
 68 64  1  0
 69 68  1  1
 70 69  1  0
 71 70  2  0
 72 69  1  0
 73 72  1  0
 74 72  1  0
 76 75  1  1
 77 76  1  0
 78 77  2  0
 79 76  1  0
 80 79  1  0
 81 80  1  0
 82 81  2  0
 83 81  1  0
 85 84  1  1
 86 85  1  0
 87 86  2  0
 88 85  1  0
 89 88  1  0
 90 89  1  0
 91 90  2  0
 92 90  1  0
 93 86  1  0
 94 93  1  0
 95 94  1  0
 96 95  2  0
 94 97  1  1
 98 97  1  0
 99 98  2  0
100 98  1  0
102101  1  1
103102  1  0
104103  2  0
105102  1  0
106105  1  0
107106  2  0
108106  1  0
109107  1  0
110108  2  0
111110  1  0
111109  2  0
112111  1  0
114113  1  1
115114  1  0
116115  2  0
117114  1  0
118117  1  0
117119  1  1
120115  1  0
121120  1  0
121122  1  1
123122  2  0
124121  1  0
125124  1  0
126125  1  0
126120  1  0
127122  1  0
128127  1  0
129128  1  0
130129  2  0
128131  1  6
M  END
$$$$
