
     RDKit          3D

148140  0  0  0  0  0  0  0  0999 V2000
   -8.0920   -7.4240   38.8560 N   0  0  0  0  0  0  0  0  0  0  0  0
   -6.6540   -7.5010   39.0750 C   0  0  2  0  0  0  0  0  0  0  0  0
   -6.2410   -6.7480   40.3360 C   0  0  0  0  0  0  0  0  0  0  0  0
   -5.3850   -7.2120   41.0860 O   0  0  0  0  0  0  0  0  0  0  0  0
   -5.9020   -6.9470   37.8640 C   0  0  0  0  0  0  0  0  0  0  0  0
   -6.2340   -7.6500   36.5530 C   0  0  0  0  0  0  0  0  0  0  0  0
   -5.9490   -9.1400   36.5970 C   0  0  0  0  0  0  0  0  0  0  0  0
   -4.9230   -9.5370   37.1880 O   0  0  0  0  0  0  0  0  0  0  0  0
   -6.7550   -9.9160   36.0410 O   0  0  0  0  0  0  0  0  0  0  0  0
  -13.9290  -25.2450   25.6890 N   0  0  0  0  0  0  0  0  0  0  0  0
  -13.8920  -26.1290   26.8480 C   0  0  2  0  0  0  0  0  0  0  0  0
  -12.8330  -25.7150   27.8670 C   0  0  0  0  0  0  0  0  0  0  0  0
  -12.9020  -26.0980   29.0350 O   0  0  0  0  0  0  0  0  0  0  0  0
  -13.6440  -27.5710   26.4020 C   0  0  0  0  0  0  0  0  0  0  0  0
  -12.3030  -27.7490   25.7180 C   0  0  0  0  0  0  0  0  0  0  0  0
  -11.7190  -26.7930   25.2110 O   0  0  0  0  0  0  0  0  0  0  0  0
  -11.8100  -28.9810   25.6990 N   0  0  0  0  0  0  0  0  0  0  0  0
  -11.8580  -24.9290   27.4220 N   0  0  0  0  0  0  0  0  0  0  0  0
  -10.7560  -24.5100   28.2830 C   0  0  2  0  0  0  0  0  0  0  0  0
  -11.1630  -23.4120   29.2620 C   0  0  0  0  0  0  0  0  0  0  0  0
  -10.4870  -23.1940   30.2680 O   0  0  0  0  0  0  0  0  0  0  0  0
   -9.5850  -24.0390   27.4380 C   0  0  0  0  0  0  0  0  0  0  0  0
  -12.2640  -22.7250   28.9730 N   0  0  0  0  0  0  0  0  0  0  0  0
  -12.6720  -21.5750   29.7760 C   0  0  2  0  0  0  0  0  0  0  0  0
  -13.6590  -21.9510   30.8760 C   0  0  0  0  0  0  0  0  0  0  0  0
  -14.6340  -22.6660   30.6440 O   0  0  0  0  0  0  0  0  0  0  0  0
  -13.2660  -20.4890   28.8730 C   0  0  0  0  0  0  0  0  0  0  0  0
  -12.2290  -19.8000   27.9870 C   0  0  0  0  0  0  0  0  0  0  0  0
  -11.2540  -18.9540   28.8090 C   0  0  0  0  0  0  0  0  0  0  0  0
   -9.9430  -18.7080   28.0800 C   0  0  0  0  0  0  0  0  0  0  0  0
  -10.0310  -17.5750   27.1230 N   0  0  0  0  0  0  0  0  0  0  0  0
  -13.3840  -21.4520   32.0780 N   0  0  0  0  0  0  0  0  0  0  0  0
  -14.1650  -21.7760   33.2660 C   0  0  2  0  0  0  0  0  0  0  0  0
  -15.5930  -21.2520   33.1650 C   0  0  0  0  0  0  0  0  0  0  0  0
  -15.8470  -20.2190   32.5430 O   0  0  0  0  0  0  0  0  0  0  0  0
  -13.5050  -21.1920   34.5410 C   0  0  2  0  0  0  0  0  0  0  0  0
  -12.1530  -21.6540   34.6410 O   0  0  0  0  0  0  0  0  0  0  0  0
  -14.2700  -21.6000   35.8000 C   0  0  0  0  0  0  0  0  0  0  0  0
  -10.9380  -34.0020   37.4730 N   0  0  0  0  0  0  0  0  0  0  0  0
  -10.0990  -34.9270   36.7170 C   0  0  2  0  0  0  0  0  0  0  0  0
   -8.7290  -35.1180   37.3630 C   0  0  0  0  0  0  0  0  0  0  0  0
   -8.0080  -36.0610   37.0330 O   0  0  0  0  0  0  0  0  0  0  0  0
   -9.9270  -34.4310   35.2810 C   0  0  0  0  0  0  0  0  0  0  0  0
  -11.1420  -34.5260   34.5590 O   0  0  0  0  0  0  0  0  0  0  0  0
   -8.3760  -34.2200   38.2790 N   0  0  0  0  0  0  0  0  0  0  0  0
   -7.0930  -34.2740   38.9550 C   0  0  0  0  0  0  0  0  0  0  0  0
   -6.4970  -32.8930   39.1520 C   0  0  0  0  0  0  0  0  0  0  0  0
   -7.1420  -31.8840   38.8650 O   0  0  0  0  0  0  0  0  0  0  0  0
   -5.2590  -32.8570   39.6400 N   0  0  0  0  0  0  0  0  0  0  0  0
   -4.5630  -31.6110   39.9080 C   0  0  0  0  0  0  0  0  0  0  0  0
   -4.1190  -31.5260   41.3550 C   0  0  0  0  0  0  0  0  0  0  0  0
   -4.0470  -32.5410   42.0480 O   0  0  0  0  0  0  0  0  0  0  0  0
   -3.8230  -30.3140   41.8140 N   0  0  0  0  0  0  0  0  0  0  0  0
   -3.3980  -30.1070   43.1930 C   0  0  2  0  0  0  0  0  0  0  0  0
   -4.5140  -30.5290   44.1460 C   0  0  0  0  0  0  0  0  0  0  0  0
   -5.6850  -30.5040   43.7710 O   0  0  0  0  0  0  0  0  0  0  0  0
   -3.0260  -28.6430   43.4380 C   0  0  0  0  0  0  0  0  0  0  0  0
   -2.1190  -28.0820   42.3600 C   0  0  0  0  0  0  0  0  0  0  0  0
   -0.8900  -28.2960   42.4380 O   0  0  0  0  0  0  0  0  0  0  0  0
   -2.6360  -27.4230   41.4350 O   0  0  0  0  0  0  0  0  0  0  0  0
   -7.5880  -28.0810   44.4620 N   0  0  0  0  0  0  0  0  0  0  0  0
   -8.6210  -27.9760   43.4310 C   0  0  2  0  0  0  0  0  0  0  0  0
   -9.3470  -29.3020   43.2110 C   0  0  0  0  0  0  0  0  0  0  0  0
  -10.4450  -29.3280   42.6540 O   0  0  0  0  0  0  0  0  0  0  0  0
   -8.0330  -27.4860   42.0850 C   0  0  2  0  0  0  0  0  0  0  0  0
   -7.0030  -28.4800   41.5380 C   0  0  0  0  0  0  0  0  0  0  0  0
   -7.4120  -26.1030   42.2630 C   0  0  0  0  0  0  0  0  0  0  0  0
   -6.4730  -28.1190   40.1610 C   0  0  0  0  0  0  0  0  0  0  0  0
  -17.3030  -24.3300   37.4430 N   0  0  0  0  0  0  0  0  0  0  0  0
  -17.3940  -25.5570   36.6600 C   0  0  2  0  0  0  0  0  0  0  0  0
  -16.4810  -25.5360   35.4420 C   0  0  0  0  0  0  0  0  0  0  0  0
  -16.1310  -24.4740   34.9240 O   0  0  0  0  0  0  0  0  0  0  0  0
  -18.8360  -25.7960   36.2110 C   0  0  0  0  0  0  0  0  0  0  0  0
  -19.8800  -25.9160   37.3230 C   0  0  0  0  0  0  0  0  0  0  0  0
  -21.2560  -26.1490   36.7230 C   0  0  0  0  0  0  0  0  0  0  0  0
  -19.5230  -27.0330   38.2940 C   0  0  0  0  0  0  0  0  0  0  0  0
  -16.1030  -26.7300   35.0000 N   0  0  0  0  0  0  0  0  0  0  0  0
  -15.2910  -26.9060   33.8030 C   0  0  2  0  0  0  0  0  0  0  0  0
  -15.8800  -28.0120   32.9360 C   0  0  0  0  0  0  0  0  0  0  0  0
  -16.2490  -29.0710   33.4420 O   0  0  0  0  0  0  0  0  0  0  0  0
  -13.8360  -27.2610   34.1500 C   0  0  2  0  0  0  0  0  0  0  0  0
  -13.7990  -28.4990   34.8710 O   0  0  0  0  0  0  0  0  0  0  0  0
  -13.1990  -26.1630   34.9880 C   0  0  0  0  0  0  0  0  0  0  0  0
  -15.9590  -27.7620   31.6320 N   0  0  0  0  0  0  0  0  0  0  0  0
  -16.5210  -28.7270   30.6920 C   0  0  2  0  0  0  0  0  0  0  0  0
  -15.4120  -29.4890   29.9740 C   0  0  0  0  0  0  0  0  0  0  0  0
  -14.4030  -28.9070   29.5760 O   0  0  0  0  0  0  0  0  0  0  0  0
  -17.4230  -28.0180   29.6820 C   0  0  0  0  0  0  0  0  0  0  0  0
  -18.1650  -28.9570   28.7460 C   0  0  0  0  0  0  0  0  0  0  0  0
  -19.0700  -28.1860   27.8010 C   0  0  0  0  0  0  0  0  0  0  0  0
  -18.3160  -27.2580   26.9620 N   0  0  0  0  0  0  0  0  0  0  0  0
  -17.7640  -27.5700   25.7920 C   0  0  0  0  0  0  0  0  0  0  0  0
  -17.8720  -28.7970   25.2970 N   0  0  0  0  0  0  0  0  0  0  0  0
  -17.0970  -26.6480   25.1110 N   0  0  0  0  0  0  0  0  0  0  0  0
  -15.6100  -30.7930   29.8120 N   0  0  0  0  0  0  0  0  0  0  0  0
  -14.6000  -31.6620   29.2170 C   0  0  2  0  0  0  0  0  0  0  0  0
  -14.3060  -31.3150   27.7610 C   0  0  0  0  0  0  0  0  0  0  0  0
  -13.1560  -31.0610   27.3980 O   0  0  0  0  0  0  0  0  0  0  0  0
  -15.0420  -33.1260   29.3140 C   0  0  0  0  0  0  0  0  0  0  0  0
  -14.8560  -33.7000   30.7040 C   0  0  0  0  0  0  0  0  0  0  0  0
  -14.8520  -32.9150   31.6760 O   0  0  0  0  0  0  0  0  0  0  0  0
  -14.7130  -34.9350   30.8240 O   0  0  0  0  0  0  0  0  0  0  0  0
  -11.9970  -24.0890   39.9020 N   0  0  0  0  0  0  0  0  0  0  0  0
  -11.3370  -23.2460   40.8830 C   0  0  0  0  0  0  0  0  0  0  0  0
   -9.8300  -23.3640   40.7670 C   0  0  0  0  0  0  0  0  0  0  0  0
   -9.3230  -24.1180   39.9370 O   0  0  0  0  0  0  0  0  0  0  0  0
   -9.1190  -22.6180   41.6070 N   0  0  0  0  0  0  0  0  0  0  0  0
   -7.6660  -22.5900   41.5830 C   0  0  0  0  0  0  0  0  0  0  0  0
   -7.1700  -21.1910   41.2860 C   0  0  0  0  0  0  0  0  0  0  0  0
   -6.2830  -20.6790   41.9680 O   0  0  0  0  0  0  0  0  0  0  0  0
   -7.7470  -20.5780   40.2570 N   0  0  0  0  0  0  0  0  0  0  0  0
   -7.4830  -19.1800   39.9410 C   0  0  2  0  0  0  0  0  0  0  0  0
   -8.4840  -18.3090   40.6900 C   0  0  0  0  0  0  0  0  0  0  0  0
   -9.6640  -18.2630   40.3420 O   0  0  0  0  0  0  0  0  0  0  0  0
   -7.5710  -18.9410   38.4310 C   0  0  0  0  0  0  0  0  0  0  0  0
   -7.2300  -17.5140   38.0410 C   0  0  0  0  0  0  0  0  0  0  0  0
   -6.7230  -16.7570   38.8980 O   0  0  0  0  0  0  0  0  0  0  0  0
   -7.4600  -17.1510   36.8670 O   0  0  0  0  0  0  0  0  0  0  0  0
   -8.8630  -15.2640   40.7650 N   0  0  0  0  0  0  0  0  0  0  0  0
   -9.3900  -14.1530   39.9860 C   0  0  2  0  0  0  0  0  0  0  0  0
  -10.8470  -14.4160   39.6270 C   0  0  0  0  0  0  0  0  0  0  0  0
  -11.6500  -13.4890   39.5580 O   0  0  0  0  0  0  0  0  0  0  0  0
   -8.5680  -13.9320   38.7180 C   0  0  0  0  0  0  0  0  0  0  0  0
   -7.2030  -13.3160   38.9590 C   0  0  0  0  0  0  0  0  0  0  0  0
   -6.5140  -13.0390   37.6380 C   0  0  0  0  0  0  0  0  0  0  0  0
   -5.1080  -12.6850   37.7990 N   0  0  0  0  0  0  0  0  0  0  0  0
   -4.1490  -13.5550   38.0970 C   0  0  0  0  0  0  0  0  0  0  0  0
   -4.4420  -14.8350   38.2850 N   0  0  0  0  0  0  0  0  0  0  0  0
   -2.8960  -13.1430   38.2190 N   0  0  0  0  0  0  0  0  0  0  0  0
  -11.1850  -15.6840   39.4130 N   0  0  0  0  0  0  0  0  0  0  0  0
  -12.5520  -16.0670   39.0750 C   0  0  2  0  0  0  0  0  0  0  0  0
  -13.4900  -15.8620   40.2590 C   0  0  0  0  0  0  0  0  0  0  0  0
  -14.6660  -15.5440   40.0790 O   0  0  0  0  0  0  0  0  0  0  0  0
  -12.6030  -17.5240   38.6110 C   0  0  0  0  0  0  0  0  0  0  0  0
  -11.9490  -17.7280   37.2590 C   0  0  0  0  0  0  0  0  0  0  0  0
  -12.0210  -16.8080   36.4170 O   0  0  0  0  0  0  0  0  0  0  0  0
  -11.3640  -18.8090   37.0380 O   0  0  0  0  0  0  0  0  0  0  0  0
  -14.1870  -12.2970   40.3120 N   0  0  0  0  0  0  0  0  0  0  0  0
  -14.9510  -12.0140   39.1030 C   0  0  2  0  0  0  0  0  0  0  0  0
  -16.4430  -12.2260   39.3170 C   0  0  0  0  0  0  0  0  0  0  0  0
  -17.2670  -11.5170   38.7420 O   0  0  0  0  0  0  0  0  0  0  0  0
  -14.4710  -12.8970   37.9500 C   0  0  0  0  0  0  0  0  0  0  0  0
  -14.3060  -12.1670   36.6370 C   0  0  0  0  0  0  0  0  0  0  0  0
  -13.8560  -13.1080   35.5320 C   0  0  0  0  0  0  0  0  0  0  0  0
  -12.4650  -13.5350   35.6780 N   0  0  0  0  0  0  0  0  0  0  0  0
  -11.4100  -12.7690   35.4100 C   0  0  0  0  0  0  0  0  0  0  0  0
  -11.5740  -11.5190   34.9960 N   0  0  0  0  0  0  0  0  0  0  0  0
  -10.1850  -13.2510   35.5670 N   0  0  0  0  0  0  0  0  0  0  0  0
  2  1  1  6
  3  2  1  0
  4  3  2  0
  5  2  1  0
  6  5  1  0
  7  6  1  0
  8  7  2  0
  9  7  1  0
 11 10  1  6
 12 11  1  0
 13 12  2  0
 14 11  1  0
 15 14  1  0
 16 15  2  0
 17 15  1  0
 18 12  1  0
 19 18  1  0
 20 19  1  0
 21 20  2  0
 19 22  1  6
 23 20  1  0
 24 23  1  0
 25 24  1  0
 26 25  2  0
 24 27  1  6
 28 27  1  0
 29 28  1  0
 30 29  1  0
 31 30  1  0
 32 25  1  0
 33 32  1  6
 34 33  1  0
 35 34  2  0
 36 33  1  0
 37 36  1  0
 36 38  1  1
 40 39  1  1
 41 40  1  0
 42 41  2  0
 43 40  1  0
 44 43  1  0
 45 41  1  0
 46 45  1  0
 47 46  1  0
 48 47  2  0
 49 47  1  0
 50 49  1  0
 51 50  1  0
 52 51  2  0
 53 51  1  0
 54 53  1  0
 55 54  1  0
 56 55  2  0
 54 57  1  6
 58 57  1  0
 59 58  2  0
 60 58  1  0
 62 61  1  1
 63 62  1  0
 64 63  2  0
 65 62  1  0
 66 65  1  0
 65 67  1  1
 68 66  1  0
 70 69  1  6
 71 70  1  0
 72 71  2  0
 73 70  1  0
 74 73  1  0
 75 74  1  0
 76 74  1  0
 77 71  1  0
 78 77  1  1
 79 78  1  0
 80 79  2  0
 81 78  1  0
 82 81  1  0
 81 83  1  1
 84 79  1  0
 85 84  1  0
 86 85  1  0
 87 86  2  0
 85 88  1  6
 89 88  1  0
 90 89  1  0
 91 90  1  0
 92 91  1  0
 93 92  1  0
 94 92  2  0
 95 86  1  0
 96 95  1  0
 97 96  1  0
 98 97  2  0
 96 99  1  6
100 99  1  0
101100  2  0
102100  1  0
104103  1  0
105104  1  0
106105  2  0
107105  1  0
108107  1  0
109108  1  0
110109  2  0
111109  1  0
112111  1  0
113112  1  0
114113  2  0
112115  1  6
116115  1  0
117116  2  0
118116  1  0
120119  1  6
121120  1  0
122121  2  0
123120  1  0
124123  1  0
125124  1  0
126125  1  0
127126  1  0
128127  1  0
129127  2  0
130121  1  0
131130  1  0
132131  1  0
133132  2  0
131134  1  1
135134  1  0
136135  2  0
137135  1  0
139138  1  1
140139  1  0
141140  2  0
142139  1  0
143142  1  0
144143  1  0
145144  1  0
146145  1  0
147146  1  0
148146  2  0
M  END
$$$$
