
     RDKit          3D

141133  0  0  0  0  0  0  0  0999 V2000
   21.5260    8.8430   41.1230 N   0  0  0  0  0  0  0  0  0  0  0  0
   20.4910    7.9050   40.7280 C   0  0  2  0  0  0  0  0  0  0  0  0
   19.4170    8.6080   39.9310 C   0  0  0  0  0  0  0  0  0  0  0  0
   18.9620    8.1160   38.8940 O   0  0  0  0  0  0  0  0  0  0  0  0
   19.8600    7.2660   41.9630 C   0  0  0  0  0  0  0  0  0  0  0  0
   20.8070    6.5450   42.8950 C   0  0  0  0  0  0  0  0  0  0  0  0
   21.5430    5.4300   42.2110 C   0  0  0  0  0  0  0  0  0  0  0  0
   20.8870    4.7380   41.3930 O   0  0  0  0  0  0  0  0  0  0  0  0
   22.7510    5.2290   42.5140 O   0  0  0  0  0  0  0  0  0  0  0  0
   39.4030   -4.2370   45.6220 N   0  0  0  0  0  0  0  0  0  0  0  0
   39.7370   -4.3080   44.2010 C   0  0  2  0  0  0  0  0  0  0  0  0
   38.5330   -4.3530   43.2790 C   0  0  0  0  0  0  0  0  0  0  0  0
   38.6110   -4.0380   42.0880 O   0  0  0  0  0  0  0  0  0  0  0  0
   40.5970   -5.5300   43.9650 C   0  0  0  0  0  0  0  0  0  0  0  0
   39.8740   -6.8030   44.2970 C   0  0  0  0  0  0  0  0  0  0  0  0
   38.9110   -6.7890   45.0530 O   0  0  0  0  0  0  0  0  0  0  0  0
   40.3220   -7.9130   43.7280 N   0  0  0  0  0  0  0  0  0  0  0  0
   37.4100   -4.7180   43.8670 N   0  0  0  0  0  0  0  0  0  0  0  0
   36.1500   -4.8510   43.1630 C   0  0  2  0  0  0  0  0  0  0  0  0
   35.5690   -3.4710   42.8950 C   0  0  0  0  0  0  0  0  0  0  0  0
   34.7290   -3.3030   42.0120 O   0  0  0  0  0  0  0  0  0  0  0  0
   35.1710   -5.7050   43.9660 C   0  0  0  0  0  0  0  0  0  0  0  0
   36.0470   -2.4780   43.6370 N   0  0  0  0  0  0  0  0  0  0  0  0
   35.4670   -1.1500   43.5840 C   0  0  2  0  0  0  0  0  0  0  0  0
   36.1480   -0.2690   42.5480 C   0  0  0  0  0  0  0  0  0  0  0  0
   37.3770   -0.2250   42.4650 O   0  0  0  0  0  0  0  0  0  0  0  0
   35.5970   -0.4890   44.9550 C   0  0  0  0  0  0  0  0  0  0  0  0
   34.7150   -1.0630   46.0510 C   0  0  0  0  0  0  0  0  0  0  0  0
   33.2280   -0.8140   45.8120 C   0  0  0  0  0  0  0  0  0  0  0  0
   32.3710   -1.8420   46.5300 C   0  0  0  0  0  0  0  0  0  0  0  0
   30.9310   -1.5000   46.4590 N   0  0  0  0  0  0  0  0  0  0  0  0
   35.3260    0.3750   41.7180 N   0  0  0  0  0  0  0  0  0  0  0  0
   35.8060    1.2060   40.6120 C   0  0  2  0  0  0  0  0  0  0  0  0
   36.6140    2.4140   41.0900 C   0  0  0  0  0  0  0  0  0  0  0  0
   36.3470    2.9660   42.1550 O   0  0  0  0  0  0  0  0  0  0  0  0
   34.6100    1.7010   39.7610 C   0  0  2  0  0  0  0  0  0  0  0  0
   33.8420    0.5740   39.3060 O   0  0  0  0  0  0  0  0  0  0  0  0
   35.0830    2.5190   38.5650 C   0  0  0  0  0  0  0  0  0  0  0  0
   40.5270   -6.8890   30.3930 N   0  0  0  0  0  0  0  0  0  0  0  0
   40.6630   -8.3500   30.4110 C   0  0  2  0  0  0  0  0  0  0  0  0
   39.5720   -9.0900   29.6440 C   0  0  0  0  0  0  0  0  0  0  0  0
   39.6970  -10.2840   29.3800 O   0  0  0  0  0  0  0  0  0  0  0  0
   40.6410   -8.9050   31.8210 C   0  0  2  0  0  0  0  0  0  0  0  0
   41.2310  -10.2100   31.8510 O   0  0  0  0  0  0  0  0  0  0  0  0
   39.2190   -8.9960   32.2840 C   0  0  0  0  0  0  0  0  0  0  0  0
   38.4920   -8.3760   29.3360 N   0  0  0  0  0  0  0  0  0  0  0  0
   37.3260   -8.9350   28.6600 C   0  0  0  0  0  0  0  0  0  0  0  0
   35.9880   -8.4610   29.2130 C   0  0  0  0  0  0  0  0  0  0  0  0
   35.9300   -7.6910   30.1720 O   0  0  0  0  0  0  0  0  0  0  0  0
   34.9020   -9.0040   28.6530 N   0  0  0  0  0  0  0  0  0  0  0  0
   33.5430   -8.6290   29.0240 C   0  0  0  0  0  0  0  0  0  0  0  0
   32.8120   -8.2100   27.7560 C   0  0  0  0  0  0  0  0  0  0  0  0
   33.2820   -8.4910   26.6570 O   0  0  0  0  0  0  0  0  0  0  0  0
   31.6680   -7.5390   27.8970 N   0  0  0  0  0  0  0  0  0  0  0  0
   30.9100   -7.0510   26.7300 C   0  0  2  0  0  0  0  0  0  0  0  0
   31.7970   -6.1020   25.9040 C   0  0  0  0  0  0  0  0  0  0  0  0
   32.7160   -5.4940   26.4340 O   0  0  0  0  0  0  0  0  0  0  0  0
   29.6090   -6.3260   27.1500 C   0  0  0  0  0  0  0  0  0  0  0  0
   29.5950   -5.9110   28.6260 C   0  0  0  0  0  0  0  0  0  0  0  0
   30.6490   -5.9990   29.2850 O   0  0  0  0  0  0  0  0  0  0  0  0
   28.5480   -5.4470   29.1230 O   0  0  0  0  0  0  0  0  0  0  0  0
   32.4790   -2.3590   27.2780 N   0  0  0  0  0  0  0  0  0  0  0  0
   33.4360   -2.0290   28.3530 C   0  0  2  0  0  0  0  0  0  0  0  0
   34.9140   -2.4170   28.0950 C   0  0  0  0  0  0  0  0  0  0  0  0
   35.8300   -1.9100   28.7530 O   0  0  0  0  0  0  0  0  0  0  0  0
   33.0000   -2.6910   29.6790 C   0  0  2  0  0  0  0  0  0  0  0  0
   33.0790   -4.2110   29.5930 C   0  0  0  0  0  0  0  0  0  0  0  0
   31.5940   -2.2550   30.0510 C   0  0  0  0  0  0  0  0  0  0  0  0
   34.3470   -4.7900   30.1570 C   0  0  0  0  0  0  0  0  0  0  0  0
   38.9820    3.5770   36.0230 N   0  0  0  0  0  0  0  0  0  0  0  0
   39.9390    2.4750   36.0870 C   0  0  2  0  0  0  0  0  0  0  0  0
   39.5210    1.4190   37.0990 C   0  0  0  0  0  0  0  0  0  0  0  0
   38.8260    1.7120   38.0680 O   0  0  0  0  0  0  0  0  0  0  0  0
   41.3310    3.0060   36.4270 C   0  0  0  0  0  0  0  0  0  0  0  0
   41.8780    4.0310   35.4320 C   0  0  0  0  0  0  0  0  0  0  0  0
   43.2500    4.4720   35.8350 C   0  0  0  0  0  0  0  0  0  0  0  0
   41.8980    3.4720   34.0120 C   0  0  0  0  0  0  0  0  0  0  0  0
   39.9870    0.1980   36.8810 N   0  0  0  0  0  0  0  0  0  0  0  0
   39.7480   -0.8960   37.8160 C   0  0  2  0  0  0  0  0  0  0  0  0
   41.0510   -1.6200   38.0770 C   0  0  0  0  0  0  0  0  0  0  0  0
   41.8540   -1.8500   37.1720 O   0  0  0  0  0  0  0  0  0  0  0  0
   38.6790   -1.8930   37.3070 C   0  0  2  0  0  0  0  0  0  0  0  0
   39.1010   -2.4770   36.0650 O   0  0  0  0  0  0  0  0  0  0  0  0
   37.3470   -1.1880   37.0950 C   0  0  0  0  0  0  0  0  0  0  0  0
   41.2520   -1.9680   39.3390 N   0  0  0  0  0  0  0  0  0  0  0  0
   42.4600   -2.6510   39.7620 C   0  0  2  0  0  0  0  0  0  0  0  0
   42.1930   -4.1290   39.9840 C   0  0  0  0  0  0  0  0  0  0  0  0
   41.1580   -4.4930   40.5270 O   0  0  0  0  0  0  0  0  0  0  0  0
   42.9750   -1.9890   41.0340 C   0  0  0  0  0  0  0  0  0  0  0  0
   44.2710   -2.5330   41.5460 C   0  0  0  0  0  0  0  0  0  0  0  0
   44.6860   -1.8010   42.7990 C   0  0  0  0  0  0  0  0  0  0  0  0
   43.7130   -1.9670   43.8690 N   0  0  0  0  0  0  0  0  0  0  0  0
   43.7290   -2.9580   44.7540 C   0  0  0  0  0  0  0  0  0  0  0  0
   44.6560   -3.9070   44.7010 N   0  0  0  0  0  0  0  0  0  0  0  0
   42.7940   -3.0150   45.6870 N   0  0  0  0  0  0  0  0  0  0  0  0
   43.1230   -4.9670   39.5350 N   0  0  0  0  0  0  0  0  0  0  0  0
   42.9820   -6.4230   39.5900 C   0  0  2  0  0  0  0  0  0  0  0  0
   42.9070   -6.9980   41.0030 C   0  0  0  0  0  0  0  0  0  0  0  0
   42.0180   -7.7920   41.3130 O   0  0  0  0  0  0  0  0  0  0  0  0
   44.1320   -7.0670   38.8410 C   0  0  0  0  0  0  0  0  0  0  0  0
   43.9350   -7.0140   37.3410 C   0  0  0  0  0  0  0  0  0  0  0  0
   43.1590   -6.1490   36.8690 O   0  0  0  0  0  0  0  0  0  0  0  0
   44.5720   -7.8220   36.6360 O   0  0  0  0  0  0  0  0  0  0  0  0
   34.4230    1.1600   33.2080 N   0  0  0  0  0  0  0  0  0  0  0  0
   33.1380    1.6180   32.6910 C   0  0  0  0  0  0  0  0  0  0  0  0
   32.0490    0.5700   32.5710 C   0  0  0  0  0  0  0  0  0  0  0  0
   32.2500   -0.6030   32.8950 O   0  0  0  0  0  0  0  0  0  0  0  0
   30.8800    1.0250   32.1230 N   0  0  0  0  0  0  0  0  0  0  0  0
   29.7030    0.1810   31.9840 C   0  0  0  0  0  0  0  0  0  0  0  0
   28.5270    0.6680   32.8160 C   0  0  0  0  0  0  0  0  0  0  0  0
   27.4020    0.7490   32.3140 O   0  0  0  0  0  0  0  0  0  0  0  0
   28.7800    0.9980   34.0830 N   0  0  0  0  0  0  0  0  0  0  0  0
   27.7630    1.6160   34.9280 C   0  0  2  0  0  0  0  0  0  0  0  0
   27.8820    3.1210   34.8000 C   0  0  0  0  0  0  0  0  0  0  0  0
   28.8160    3.7340   35.3230 O   0  0  0  0  0  0  0  0  0  0  0  0
   27.9020    1.1950   36.3850 C   0  0  0  0  0  0  0  0  0  0  0  0
   26.8150    1.7760   37.2480 C   0  0  0  0  0  0  0  0  0  0  0  0
   25.8670    2.3610   36.6870 O   0  0  0  0  0  0  0  0  0  0  0  0
   26.8980    1.6430   38.4820 O   0  0  0  0  0  0  0  0  0  0  0  0
   26.3110    5.3940   36.1110 N   0  0  0  0  0  0  0  0  0  0  0  0
   26.1790    6.1420   37.3410 C   0  0  2  0  0  0  0  0  0  0  0  0
   27.5090    6.7610   37.7140 C   0  0  0  0  0  0  0  0  0  0  0  0
   27.5410    7.8520   38.2810 O   0  0  0  0  0  0  0  0  0  0  0  0
   25.6980    5.2510   38.4780 C   0  0  0  0  0  0  0  0  0  0  0  0
   24.2470    4.8480   38.3980 C   0  0  0  0  0  0  0  0  0  0  0  0
   23.8660    4.0590   39.6350 C   0  0  0  0  0  0  0  0  0  0  0  0
   22.5780    3.3920   39.4990 N   0  0  0  0  0  0  0  0  0  0  0  0
   22.3650    2.3230   38.7430 C   0  0  0  0  0  0  0  0  0  0  0  0
   23.3550    1.7720   38.0500 N   0  0  0  0  0  0  0  0  0  0  0  0
   21.1590    1.7900   38.6970 N   0  0  0  0  0  0  0  0  0  0  0  0
   28.5300   10.4730   38.4540 N   0  0  0  0  0  0  0  0  0  0  0  0
   29.2000   10.6150   39.7340 C   0  0  2  0  0  0  0  0  0  0  0  0
   30.3950   11.5300   39.5980 C   0  0  0  0  0  0  0  0  0  0  0  0
   30.7280   12.2490   40.5280 O   0  0  0  0  0  0  0  0  0  0  0  0
   29.6650    9.2550   40.2300 C   0  0  0  0  0  0  0  0  0  0  0  0
   29.3210    8.9450   41.6450 C   0  0  0  0  0  0  0  0  0  0  0  0
   29.8950    7.5890   42.0060 C   0  0  0  0  0  0  0  0  0  0  0  0
   29.1250    6.4780   41.4480 N   0  0  0  0  0  0  0  0  0  0  0  0
   27.9310    6.0820   41.8850 C   0  0  0  0  0  0  0  0  0  0  0  0
   27.3360    6.7110   42.8990 N   0  0  0  0  0  0  0  0  0  0  0  0
   27.3290    5.0480   41.3040 N   0  0  0  0  0  0  0  0  0  0  0  0
  2  1  1  1
  3  2  1  0
  4  3  2  0
  5  2  1  0
  6  5  1  0
  7  6  1  0
  8  7  2  0
  9  7  1  0
 11 10  1  1
 12 11  1  0
 13 12  2  0
 14 11  1  0
 15 14  1  0
 16 15  2  0
 17 15  1  0
 18 12  1  0
 19 18  1  0
 20 19  1  0
 21 20  2  0
 19 22  1  1
 23 20  1  0
 24 23  1  0
 25 24  1  0
 26 25  2  0
 24 27  1  1
 28 27  1  0
 29 28  1  0
 30 29  1  0
 31 30  1  0
 32 25  1  0
 33 32  1  1
 34 33  1  0
 35 34  2  0
 36 33  1  0
 37 36  1  0
 36 38  1  6
 40 39  1  1
 41 40  1  0
 42 41  2  0
 43 40  1  0
 44 43  1  0
 43 45  1  6
 46 41  1  0
 47 46  1  0
 48 47  1  0
 49 48  2  0
 50 48  1  0
 51 50  1  0
 52 51  1  0
 53 52  2  0
 54 52  1  0
 55 54  1  0
 56 55  1  0
 57 56  2  0
 55 58  1  1
 59 58  1  0
 60 59  2  0
 61 59  1  0
 63 62  1  6
 64 63  1  0
 65 64  2  0
 66 63  1  0
 67 66  1  0
 66 68  1  6
 69 67  1  0
 71 70  1  1
 72 71  1  0
 73 72  2  0
 74 71  1  0
 75 74  1  0
 76 75  1  0
 77 75  1  0
 78 72  1  0
 79 78  1  6
 80 79  1  0
 81 80  2  0
 82 79  1  0
 83 82  1  0
 82 84  1  6
 85 80  1  0
 86 85  1  0
 87 86  1  0
 88 87  2  0
 86 89  1  1
 90 89  1  0
 91 90  1  0
 92 91  1  0
 93 92  1  0
 94 93  1  0
 95 93  2  0
 96 87  1  0
 97 96  1  0
 98 97  1  0
 99 98  2  0
 97100  1  1
101100  1  0
102101  2  0
103101  1  0
105104  1  0
106105  1  0
107106  2  0
108106  1  0
109108  1  0
110109  1  0
111110  2  0
112110  1  0
113112  1  0
114113  1  0
115114  2  0
113116  1  1
117116  1  0
118117  2  0
119117  1  0
121120  1  6
122121  1  0
123122  2  0
124121  1  0
125124  1  0
126125  1  0
127126  1  0
128127  1  0
129128  1  0
130128  2  0
132131  1  6
133132  1  0
134133  2  0
135132  1  0
136135  1  0
137136  1  0
138137  1  0
139138  1  0
140139  1  0
141139  2  0
M  END
$$$$
