
     RDKit          3D

 71 68  0  0  0  0  0  0  0  0999 V2000
  -14.8370   -3.9070  -20.5710 N   0  0  0  0  0  0  0  0  0  0  0  0
  -14.1630   -4.5500  -21.6810 C   0  0  2  0  0  0  0  0  0  0  0  0
  -12.6680   -4.6660  -21.3910 C   0  0  0  0  0  0  0  0  0  0  0  0
  -11.9180   -3.7020  -21.5400 O   0  0  0  0  0  0  0  0  0  0  0  0
  -14.4300   -3.7670  -22.9700 C   0  0  0  0  0  0  0  0  0  0  0  0
  -14.6390   -4.6610  -24.1530 C   0  0  0  0  0  0  0  0  0  0  0  0
  -14.1510   -5.7910  -24.1820 O   0  0  0  0  0  0  0  0  0  0  0  0
  -15.4370   -4.2040  -25.1080 N   0  0  0  0  0  0  0  0  0  0  0  0
  -10.2290   -6.0330  -22.8170 N   0  0  0  0  0  0  0  0  0  0  0  0
   -9.3020   -5.8150  -23.9150 C   0  0  2  0  0  0  0  0  0  0  0  0
   -8.9750   -4.3320  -24.0340 C   0  0  0  0  0  0  0  0  0  0  0  0
   -7.8780   -3.9640  -24.4530 O   0  0  0  0  0  0  0  0  0  0  0  0
   -9.8750   -6.3340  -25.2460 C   0  0  2  0  0  0  0  0  0  0  0  0
  -10.1280   -7.7400  -25.1310 O   0  0  0  0  0  0  0  0  0  0  0  0
   -8.8990   -6.0940  -26.3920 C   0  0  0  0  0  0  0  0  0  0  0  0
   -9.9310   -3.4860  -23.6600 N   0  0  0  0  0  0  0  0  0  0  0  0
   -9.7310   -2.0420  -23.6920 C   0  0  2  0  0  0  0  0  0  0  0  0
   -8.9340   -1.5770  -22.4790 C   0  0  0  0  0  0  0  0  0  0  0  0
   -9.4180   -1.6280  -21.3470 O   0  0  0  0  0  0  0  0  0  0  0  0
  -11.0810   -1.3200  -23.7550 C   0  0  0  0  0  0  0  0  0  0  0  0
  -10.9440    0.1540  -24.0940 C   0  0  0  0  0  0  0  0  0  0  0  0
   -9.8870    0.7530  -23.9030 O   0  0  0  0  0  0  0  0  0  0  0  0
  -12.0190    0.7460  -24.6020 N   0  0  0  0  0  0  0  0  0  0  0  0
   -7.7080   -1.1210  -22.7220 N   0  0  0  0  0  0  0  0  0  0  0  0
   -6.8250   -0.6970  -21.6440 C   0  0  2  0  0  0  0  0  0  0  0  0
   -7.2960    0.6070  -21.0020 C   0  0  0  0  0  0  0  0  0  0  0  0
   -6.8270    0.9810  -19.9280 O   0  0  0  0  0  0  0  0  0  0  0  0
   -5.3830   -0.5530  -22.1570 C   0  0  0  0  0  0  0  0  0  0  0  0
   -5.2170    0.5630  -23.1830 C   0  0  0  0  0  0  0  0  0  0  0  0
   -5.7210    1.6740  -23.0120 O   0  0  0  0  0  0  0  0  0  0  0  0
   -4.4900    0.2690  -24.2540 N   0  0  0  0  0  0  0  0  0  0  0  0
   -4.5840   -1.6980  -16.8370 N   0  0  0  0  0  0  0  0  0  0  0  0
   -3.6250   -2.5800  -17.4900 C   0  0  2  0  0  0  0  0  0  0  0  0
   -2.8310   -1.8430  -18.5640 C   0  0  0  0  0  0  0  0  0  0  0  0
   -3.3930   -1.0870  -19.3560 O   0  0  0  0  0  0  0  0  0  0  0  0
   -4.3530   -3.7790  -18.1000 C   0  0  0  0  0  0  0  0  0  0  0  0
   -3.4660   -4.7380  -18.8820 C   0  0  0  0  0  0  0  0  0  0  0  0
   -4.3010   -5.8280  -19.5310 C   0  0  0  0  0  0  0  0  0  0  0  0
   -5.2840   -5.2730  -20.4590 N   0  0  0  0  0  0  0  0  0  0  0  0
   -5.0630   -5.0390  -21.7510 C   0  0  0  0  0  0  0  0  0  0  0  0
   -3.8860   -5.3130  -22.3010 N   0  0  0  0  0  0  0  0  0  0  0  0
   -6.0280   -4.5270  -22.5000 N   0  0  0  0  0  0  0  0  0  0  0  0
   -1.5210   -2.0710  -18.5810 N   0  0  0  0  0  0  0  0  0  0  0  0
   -0.6480   -1.4800  -19.5880 C   0  0  2  0  0  0  0  0  0  0  0  0
   -1.0130   -1.9670  -20.9890 C   0  0  0  0  0  0  0  0  0  0  0  0
   -1.2800   -3.1530  -21.1930 O   0  0  0  0  0  0  0  0  0  0  0  0
    0.8140   -1.8110  -19.2830 C   0  0  0  0  0  0  0  0  0  0  0  0
    1.3360   -1.0800  -18.0620 C   0  0  0  0  0  0  0  0  0  0  0  0
    0.5120   -0.6020  -17.2540 O   0  0  0  0  0  0  0  0  0  0  0  0
    2.5720   -0.9880  -17.9060 O   0  0  0  0  0  0  0  0  0  0  0  0
   -1.0160   -1.0410  -21.9450 N   0  0  0  0  0  0  0  0  0  0  0  0
   -1.3390   -1.3480  -23.3280 C   0  0  0  0  0  0  0  0  0  0  0  0
   -0.1090   -1.2920  -24.2120 C   0  0  0  0  0  0  0  0  0  0  0  0
    1.0130   -1.1880  -23.7170 O   0  0  0  0  0  0  0  0  0  0  0  0
   -0.3240   -1.3570  -25.5230 N   0  0  0  0  0  0  0  0  0  0  0  0
    0.7600   -1.3240  -26.4890 C   0  0  0  0  0  0  0  0  0  0  0  0
    1.0140   -2.6910  -27.0920 C   0  0  0  0  0  0  0  0  0  0  0  0
    0.6960   -3.7140  -26.4870 O   0  0  0  0  0  0  0  0  0  0  0  0
    1.5870   -2.7070  -28.2910 N   0  0  0  0  0  0  0  0  0  0  0  0
    1.8990   -3.9570  -28.9750 C   0  0  2  0  0  0  0  0  0  0  0  0
    2.9230   -4.7560  -28.1760 C   0  0  0  0  0  0  0  0  0  0  0  0
    4.0760   -4.3450  -28.0460 O   0  0  0  0  0  0  0  0  0  0  0  0
    2.4180   -3.6800  -30.3800 C   0  0  0  0  0  0  0  0  0  0  0  0
    2.4970   -5.8970  -27.6390 N   0  0  0  0  0  0  0  0  0  0  0  0
    3.3750   -6.7280  -26.8240 C   0  0  2  0  0  0  0  0  0  0  0  0
    2.9520   -8.1850  -26.7670 C   0  0  0  0  0  0  0  0  0  0  0  0
    1.7780   -8.4970  -26.5720 O   0  0  0  0  0  0  0  0  0  0  0  0
    3.4400   -6.1870  -25.3970 C   0  0  0  0  0  0  0  0  0  0  0  0
    4.4160   -6.9580  -24.5240 C   0  0  0  0  0  0  0  0  0  0  0  0
    5.5640   -7.1900  -24.9040 O   0  0  0  0  0  0  0  0  0  0  0  0
    3.9560   -7.3650  -23.3460 N   0  0  0  0  0  0  0  0  0  0  0  0
  2  1  1  1
  3  2  1  0
  4  3  2  0
  5  2  1  0
  6  5  1  0
  7  6  2  0
  8  6  1  0
 10  9  1  1
 11 10  1  0
 12 11  2  0
 13 10  1  0
 14 13  1  0
 13 15  1  6
 16 11  1  0
 17 16  1  0
 18 17  1  0
 19 18  2  0
 17 20  1  1
 21 20  1  0
 22 21  2  0
 23 21  1  0
 24 18  1  0
 25 24  1  0
 26 25  1  0
 27 26  2  0
 25 28  1  6
 29 28  1  0
 30 29  2  0
 31 29  1  0
 33 32  1  6
 34 33  1  0
 35 34  2  0
 36 33  1  0
 37 36  1  0
 38 37  1  0
 39 38  1  0
 40 39  1  0
 41 40  1  0
 42 40  2  0
 43 34  1  0
 44 43  1  0
 45 44  1  0
 46 45  2  0
 44 47  1  1
 48 47  1  0
 49 48  2  0
 50 48  1  0
 51 45  1  0
 52 51  1  0
 53 52  1  0
 54 53  2  0
 55 53  1  0
 56 55  1  0
 57 56  1  0
 58 57  2  0
 59 57  1  0
 60 59  1  0
 61 60  1  0
 62 61  2  0
 60 63  1  6
 64 61  1  0
 65 64  1  0
 66 65  1  0
 67 66  2  0
 65 68  1  1
 69 68  1  0
 70 69  2  0
 71 69  1  0
M  END
$$$$
