
     RDKit          3D

161154  0  0  0  0  0  0  0  0999 V2000
   -9.0040    6.2420   -3.4860 N   0  0  0  0  0  0  0  0  0  0  0  0
   -8.3520    5.8390   -4.7240 C   0  0  2  0  0  0  0  0  0  0  0  0
   -7.5470    4.5620   -4.4930 C   0  0  0  0  0  0  0  0  0  0  0  0
   -7.1970    4.2370   -3.3570 O   0  0  0  0  0  0  0  0  0  0  0  0
   -7.4330    6.9480   -5.2610 C   0  0  2  0  0  0  0  0  0  0  0  0
   -6.3260    7.1320   -4.3680 O   0  0  0  0  0  0  0  0  0  0  0  0
   -8.2110    8.2550   -5.4000 C   0  0  0  0  0  0  0  0  0  0  0  0
   -8.2210    1.2950  -21.6650 N   0  0  0  0  0  0  0  0  0  0  0  0
   -8.7570    2.5490  -21.1470 C   0  0  2  0  0  0  0  0  0  0  0  0
   -9.8380    2.2930  -20.1000 C   0  0  0  0  0  0  0  0  0  0  0  0
  -10.2170    3.2010  -19.3600 O   0  0  0  0  0  0  0  0  0  0  0  0
   -9.3130    3.4000  -22.2790 C   0  0  0  0  0  0  0  0  0  0  0  0
  -11.3120    0.7310  -16.6750 N   0  0  0  0  0  0  0  0  0  0  0  0
  -10.8410    0.3840  -15.3450 C   0  0  2  0  0  0  0  0  0  0  0  0
  -11.2320   -1.0450  -14.9900 C   0  0  0  0  0  0  0  0  0  0  0  0
  -12.3120   -1.5130  -15.3520 O   0  0  0  0  0  0  0  0  0  0  0  0
  -11.4080    1.3400  -14.2790 C   0  0  2  0  0  0  0  0  0  0  0  0
  -11.1140    2.6950  -14.6400 O   0  0  0  0  0  0  0  0  0  0  0  0
  -10.8060    1.0410  -12.9150 C   0  0  0  0  0  0  0  0  0  0  0  0
    2.3540    4.8690  -13.0580 N   0  0  0  0  0  0  0  0  0  0  0  0
    3.3420    5.4490  -13.9570 C   0  0  2  0  0  0  0  0  0  0  0  0
    3.4810    6.9550  -13.7470 C   0  0  0  0  0  0  0  0  0  0  0  0
    4.5410    7.5280  -13.9970 O   0  0  0  0  0  0  0  0  0  0  0  0
    2.9620    5.1570  -15.4110 C   0  0  0  0  0  0  0  0  0  0  0  0
    3.0440    3.7720  -15.7000 O   0  0  0  0  0  0  0  0  0  0  0  0
    2.4060    7.5900  -13.2910 N   0  0  0  0  0  0  0  0  0  0  0  0
    2.4050    9.0240  -13.0660 C   0  0  0  0  0  0  0  0  0  0  0  0
    1.0220    9.5460  -12.7270 C   0  0  0  0  0  0  0  0  0  0  0  0
    0.0830    8.7670  -12.5560 O   0  0  0  0  0  0  0  0  0  0  0  0
    0.9020   10.8680  -12.6300 N   0  0  0  0  0  0  0  0  0  0  0  0
   -0.3530   11.5140  -12.2900 C   0  0  0  0  0  0  0  0  0  0  0  0
   -0.2540   12.2590  -10.9730 C   0  0  0  0  0  0  0  0  0  0  0  0
    0.7890   12.2450  -10.3190 O   0  0  0  0  0  0  0  0  0  0  0  0
   -1.3430   12.9150  -10.5850 N   0  0  0  0  0  0  0  0  0  0  0  0
   -1.3810   13.6460   -9.3260 C   0  0  2  0  0  0  0  0  0  0  0  0
   -1.2140   12.6910   -8.1500 C   0  0  0  0  0  0  0  0  0  0  0  0
   -1.4620   11.4900   -8.2750 O   0  0  0  0  0  0  0  0  0  0  0  0
   -2.6920   14.4230   -9.1940 C   0  0  0  0  0  0  0  0  0  0  0  0
   -2.8820   15.4380  -10.3040 C   0  0  0  0  0  0  0  0  0  0  0  0
   -1.8690   15.9050  -10.8670 O   0  0  0  0  0  0  0  0  0  0  0  0
   -4.0450   15.7720  -10.6130 O   0  0  0  0  0  0  0  0  0  0  0  0
   -2.9740   12.2620   -5.6970 N   0  0  0  0  0  0  0  0  0  0  0  0
   -4.2450   11.6560   -5.3150 C   0  0  2  0  0  0  0  0  0  0  0  0
   -4.4490   10.2720   -5.9450 C   0  0  0  0  0  0  0  0  0  0  0  0
   -5.3170    9.5180   -5.5090 O   0  0  0  0  0  0  0  0  0  0  0  0
   -5.4100   12.5740   -5.6980 C   0  0  0  0  0  0  0  0  0  0  0  0
   -5.5650   13.8040   -4.8020 C   0  0  0  0  0  0  0  0  0  0  0  0
   -4.4970   14.8590   -5.0350 C   0  0  0  0  0  0  0  0  0  0  0  0
   -3.7810   14.7780   -6.0540 O   0  0  0  0  0  0  0  0  0  0  0  0
   -4.3750   15.7750   -4.1940 O   0  0  0  0  0  0  0  0  0  0  0  0
   -3.6470    9.9410   -6.9570 N   0  0  0  0  0  0  0  0  0  0  0  0
   -3.7800    8.6640   -7.6670 C   0  0  2  0  0  0  0  0  0  0  0  0
   -2.5430    7.7940   -7.5320 C   0  0  0  0  0  0  0  0  0  0  0  0
   -2.6500    6.5850   -7.3570 O   0  0  0  0  0  0  0  0  0  0  0  0
   -4.0680    8.8860   -9.1610 C   0  0  2  0  0  0  0  0  0  0  0  0
   -5.5490    9.2100   -9.3430 C   0  0  0  0  0  0  0  0  0  0  0  0
   -3.6830    7.6500   -9.9970 C   0  0  0  0  0  0  0  0  0  0  0  0
   -6.0400    9.1140  -10.7640 C   0  0  0  0  0  0  0  0  0  0  0  0
   -5.2070    7.3870   -1.6130 N   0  0  0  0  0  0  0  0  0  0  0  0
   -5.7710    8.6360   -1.1220 C   0  0  2  0  0  0  0  0  0  0  0  0
   -7.1520    8.4010   -0.5210 C   0  0  0  0  0  0  0  0  0  0  0  0
   -8.0080    7.7840   -1.1490 O   0  0  0  0  0  0  0  0  0  0  0  0
   -5.8420    9.6520   -2.2650 C   0  0  0  0  0  0  0  0  0  0  0  0
   -6.5410   10.9260   -1.9080 C   0  0  0  0  0  0  0  0  0  0  0  0
   -6.1020   11.7620   -0.9040 N   0  0  0  0  0  0  0  0  0  0  0  0
   -7.6420   11.5130   -2.4320 C   0  0  0  0  0  0  0  0  0  0  0  0
   -6.9080   12.8060   -0.8210 C   0  0  0  0  0  0  0  0  0  0  0  0
   -7.8510   12.6790   -1.7370 N   0  0  0  0  0  0  0  0  0  0  0  0
   -4.9300   20.1650   -1.7460 N   0  0  0  0  0  0  0  0  0  0  0  0
   -5.4050   18.9600   -2.4140 C   0  0  2  0  0  0  0  0  0  0  0  0
   -6.1980   19.2350   -3.6810 C   0  0  0  0  0  0  0  0  0  0  0  0
   -6.9100   20.2330   -3.7880 O   0  0  0  0  0  0  0  0  0  0  0  0
   -6.2740   18.1370   -1.4450 C   0  0  2  0  0  0  0  0  0  0  0  0
   -5.4120   17.7200   -0.2530 C   0  0  0  0  0  0  0  0  0  0  0  0
   -6.9400   16.9440   -2.1600 C   0  0  0  0  0  0  0  0  0  0  0  0
   -6.1210   16.9900    0.7980 C   0  0  0  0  0  0  0  0  0  0  0  0
   -6.0530   18.3320   -4.6430 N   0  0  0  0  0  0  0  0  0  0  0  0
   -6.8800   18.3270   -5.8360 C   0  0  2  0  0  0  0  0  0  0  0  0
   -8.1940   17.6220   -5.5260 C   0  0  0  0  0  0  0  0  0  0  0  0
   -8.2180   16.4120   -5.3190 O   0  0  0  0  0  0  0  0  0  0  0  0
   -6.1440   17.6390   -6.9870 C   0  0  0  0  0  0  0  0  0  0  0  0
   -4.8950   18.3930   -7.4110 C   0  0  0  0  0  0  0  0  0  0  0  0
   -4.9330   19.6010   -7.6420 O   0  0  0  0  0  0  0  0  0  0  0  0
   -3.7770   17.6820   -7.5060 N   0  0  0  0  0  0  0  0  0  0  0  0
   -9.2770   18.3900   -5.4650 N   0  0  0  0  0  0  0  0  0  0  0  0
  -10.5810   17.8510   -5.0920 C   0  0  2  0  0  0  0  0  0  0  0  0
  -11.0380   16.7680   -6.0620 C   0  0  0  0  0  0  0  0  0  0  0  0
  -10.8640   16.8910   -7.2740 O   0  0  0  0  0  0  0  0  0  0  0  0
  -11.6240   18.9690   -5.0390 C   0  0  0  0  0  0  0  0  0  0  0  0
  -11.3520   20.0330   -3.9820 C   0  0  0  0  0  0  0  0  0  0  0  0
  -11.3030   19.4000   -2.2910 S   0  0  0  0  0  0  0  0  0  0  0  0
  -12.9690   18.7640   -2.1070 C   0  0  0  0  0  0  0  0  0  0  0  0
  -11.6350   15.7110   -5.5210 N   0  0  0  0  0  0  0  0  0  0  0  0
  -12.0890   14.5920   -6.3360 C   0  0  2  0  0  0  0  0  0  0  0  0
  -13.3550   14.9210   -7.1210 C   0  0  0  0  0  0  0  0  0  0  0  0
  -13.7170   14.2000   -8.0500 O   0  0  0  0  0  0  0  0  0  0  0  0
  -12.3300   13.3600   -5.4620 C   0  0  0  0  0  0  0  0  0  0  0  0
  -13.4060   13.5620   -4.4460 C   0  0  0  0  0  0  0  0  0  0  0  0
  -13.2520   13.9940   -3.1600 C   0  0  0  0  0  0  0  0  0  0  0  0
  -14.8100   13.3470   -4.6310 C   0  0  0  0  0  0  0  0  0  0  0  0
  -14.4730   14.0610   -2.5340 N   0  0  0  0  0  0  0  0  0  0  0  0
  -15.4460   13.6680   -3.4150 C   0  0  0  0  0  0  0  0  0  0  0  0
  -15.5910   12.9140   -5.7070 C   0  0  0  0  0  0  0  0  0  0  0  0
  -16.8240   13.5680   -3.2450 C   0  0  0  0  0  0  0  0  0  0  0  0
  -16.9590   12.8150   -5.5360 C   0  0  0  0  0  0  0  0  0  0  0  0
  -17.5620   13.1410   -4.3150 C   0  0  0  0  0  0  0  0  0  0  0  0
  -14.0280   16.0060   -6.7510 N   0  0  0  0  0  0  0  0  0  0  0  0
  -15.2040   16.4470   -7.4900 C   0  0  2  0  0  0  0  0  0  0  0  0
  -14.8060   17.0430   -8.8360 C   0  0  0  0  0  0  0  0  0  0  0  0
  -15.6520   17.2410   -9.7040 O   0  0  0  0  0  0  0  0  0  0  0  0
  -15.9990   17.4730   -6.6820 C   0  0  0  0  0  0  0  0  0  0  0  0
  -16.5570   16.9440   -5.3710 C   0  0  0  0  0  0  0  0  0  0  0  0
  -15.6010   17.1400   -4.2130 C   0  0  0  0  0  0  0  0  0  0  0  0
  -14.4120   16.8420   -4.3180 O   0  0  0  0  0  0  0  0  0  0  0  0
  -16.1150   17.6540   -3.1010 N   0  0  0  0  0  0  0  0  0  0  0  0
  -13.5180   17.3310   -9.0030 N   0  0  0  0  0  0  0  0  0  0  0  0
  -13.0300   17.9700  -10.2120 C   0  0  0  0  0  0  0  0  0  0  0  0
  -13.2990   19.4620  -10.1820 C   0  0  0  0  0  0  0  0  0  0  0  0
  -13.5110   20.0900  -11.2210 O   0  0  0  0  0  0  0  0  0  0  0  0
   -5.5120   -0.6090  -13.6500 N   0  0  0  0  0  0  0  0  0  0  0  0
   -5.4560   -0.2880  -15.0680 C   0  0  2  0  0  0  0  0  0  0  0  0
   -4.3150   -1.0900  -15.6870 C   0  0  0  0  0  0  0  0  0  0  0  0
   -3.2180   -1.1570  -15.1300 O   0  0  0  0  0  0  0  0  0  0  0  0
   -5.2450    1.2180  -15.3200 C   0  0  2  0  0  0  0  0  0  0  0  0
   -6.3160    1.9590  -14.7240 O   0  0  0  0  0  0  0  0  0  0  0  0
   -5.2000    1.5130  -16.8160 C   0  0  0  0  0  0  0  0  0  0  0  0
   -1.4490   -1.8350  -12.8470 N   0  0  0  0  0  0  0  0  0  0  0  0
   -1.0500   -0.7850  -11.9140 C   0  0  2  0  0  0  0  0  0  0  0  0
   -2.2470   -0.2980  -11.1000 C   0  0  0  0  0  0  0  0  0  0  0  0
   -3.3550   -0.2020  -11.6240 O   0  0  0  0  0  0  0  0  0  0  0  0
   -0.4130    0.3820  -12.6700 C   0  0  0  0  0  0  0  0  0  0  0  0
    0.9280    0.0390  -13.3000 C   0  0  0  0  0  0  0  0  0  0  0  0
    1.3650    1.0860  -14.3140 C   0  0  0  0  0  0  0  0  0  0  0  0
    2.3940    0.5660  -15.2130 N   0  0  0  0  0  0  0  0  0  0  0  0
    3.7030    0.6000  -14.9740 C   0  0  0  0  0  0  0  0  0  0  0  0
    4.1770    1.1370  -13.8570 N   0  0  0  0  0  0  0  0  0  0  0  0
    4.5460    0.0930  -15.8630 N   0  0  0  0  0  0  0  0  0  0  0  0
   -7.7260    3.6630  -10.4870 N   0  0  0  0  0  0  0  0  0  0  0  0
   -8.8900    3.2640  -11.2590 C   0  0  0  0  0  0  0  0  0  0  0  0
   -9.3930    4.2960  -12.2480 C   0  0  0  0  0  0  0  0  0  0  0  0
   -9.3780    4.0700  -13.4580 O   0  0  0  0  0  0  0  0  0  0  0  0
   -9.8460    5.4290  -11.7250 N   0  0  0  0  0  0  0  0  0  0  0  0
  -10.4790    6.4440  -12.5410 C   0  0  0  0  0  0  0  0  0  0  0  0
  -11.4300    7.2920  -11.7230 C   0  0  0  0  0  0  0  0  0  0  0  0
  -11.0300    7.9220  -10.7430 O   0  0  0  0  0  0  0  0  0  0  0  0
  -12.6980    7.2960  -12.1200 N   0  0  0  0  0  0  0  0  0  0  0  0
  -13.7080    8.0910  -11.4370 C   0  0  2  0  0  0  0  0  0  0  0  0
  -13.9690    7.5660  -10.0340 C   0  0  0  0  0  0  0  0  0  0  0  0
  -13.8580    6.3670   -9.7820 O   0  0  0  0  0  0  0  0  0  0  0  0
  -15.0250    8.0960  -12.2220 C   0  0  0  0  0  0  0  0  0  0  0  0
  -14.8170    8.1880  -13.7190 C   0  0  0  0  0  0  0  0  0  0  0  0
  -14.7870    7.1720  -14.4150 O   0  0  0  0  0  0  0  0  0  0  0  0
  -14.6810    9.4070  -14.2260 N   0  0  0  0  0  0  0  0  0  0  0  0
  -14.3160    8.4670   -9.1210 N   0  0  0  0  0  0  0  0  0  0  0  0
  -14.8570    8.0680   -7.8280 C   0  0  2  0  0  0  0  0  0  0  0  0
  -16.1930    7.3700   -8.0630 C   0  0  0  0  0  0  0  0  0  0  0  0
  -16.6520    6.5910   -7.2310 O   0  0  0  0  0  0  0  0  0  0  0  0
  -15.0250    9.2850   -6.8880 C   0  0  2  0  0  0  0  0  0  0  0  0
  -13.6500    9.8120   -6.4650 C   0  0  0  0  0  0  0  0  0  0  0  0
  -15.8600    8.9450   -5.6540 C   0  0  0  0  0  0  0  0  0  0  0  0
  -12.7620    8.7990   -5.7210 C   0  0  0  0  0  0  0  0  0  0  0  0
  2  1  1  1
  3  2  1  0
  4  3  2  0
  5  2  1  0
  6  5  1  0
  5  7  1  1
  9  8  1  0
 10  9  1  0
 11 10  2  0
  9 12  1  6
 14 13  1  6
 15 14  1  0
 16 15  2  0
 17 14  1  0
 18 17  1  0
 17 19  1  1
 21 20  1  1
 22 21  1  0
 23 22  2  0
 24 21  1  0
 25 24  1  0
 26 22  1  0
 27 26  1  0
 28 27  1  0
 29 28  2  0
 30 28  1  0
 31 30  1  0
 32 31  1  0
 33 32  2  0
 34 32  1  0
 35 34  1  0
 36 35  1  0
 37 36  2  0
 35 38  1  1
 39 38  1  0
 40 39  2  0
 41 39  1  0
 43 42  1  6
 44 43  1  0
 45 44  2  0
 46 43  1  0
 47 46  1  0
 48 47  1  0
 49 48  2  0
 50 48  1  0
 51 44  1  0
 52 51  1  1
 53 52  1  0
 54 53  2  0
 55 52  1  0
 56 55  1  0
 55 57  1  6
 58 56  1  0
 60 59  1  6
 61 60  1  0
 62 61  2  0
 63 60  1  0
 64 63  1  0
 65 64  1  0
 66 64  2  0
 67 65  2  0
 68 67  1  0
 68 66  1  0
 70 69  1  1
 71 70  1  0
 72 71  2  0
 73 70  1  0
 74 73  1  0
 73 75  1  6
 76 74  1  0
 77 71  1  0
 78 77  1  0
 79 78  1  0
 80 79  2  0
 78 81  1  6
 82 81  1  0
 83 82  2  0
 84 82  1  0
 85 79  1  0
 86 85  1  0
 87 86  1  0
 88 87  2  0
 86 89  1  6
 90 89  1  0
 91 90  1  0
 92 91  1  0
 93 87  1  0
 94 93  1  0
 95 94  1  0
 96 95  2  0
 94 97  1  1
 98 97  1  0
 99 98  2  0
100 98  1  0
101 99  1  0
102101  1  0
102100  2  0
103100  1  0
104102  1  0
105103  2  0
106105  1  0
106104  2  0
107 95  1  0
108107  1  0
109108  1  0
110109  2  0
108111  1  1
112111  1  0
113112  1  0
114113  2  0
115113  1  0
116109  1  0
117116  1  0
118117  1  0
119118  2  0
121120  1  1
122121  1  0
123122  2  0
124121  1  0
125124  1  0
124126  1  6
128127  1  6
129128  1  0
130129  2  0
131128  1  0
132131  1  0
133132  1  0
134133  1  0
135134  1  0
136135  1  0
137135  2  0
139138  1  0
140139  1  0
141140  2  0
142140  1  0
143142  1  0
144143  1  0
145144  2  0
146144  1  0
147146  1  0
148147  1  0
149148  2  0
147150  1  6
151150  1  0
152151  2  0
153151  1  0
154148  1  0
155154  1  6
156155  1  0
157156  2  0
158155  1  0
159158  1  0
158160  1  1
161159  1  0
M  END
$$$$
