
     RDKit          3D

 79 76  0  0  0  0  0  0  0  0999 V2000
   18.3170  -12.0910  -27.4090 N   0  0  0  0  0  0  0  0  0  0  0  0
   18.8570  -12.9590  -26.3700 C   0  0  2  0  0  0  0  0  0  0  0  0
   18.8890  -14.4200  -26.8040 C   0  0  0  0  0  0  0  0  0  0  0  0
   17.8800  -15.1170  -26.6930 O   0  0  0  0  0  0  0  0  0  0  0  0
   18.1200  -12.7900  -25.0450 C   0  0  0  0  0  0  0  0  0  0  0  0
   19.0850  -12.4850  -23.9150 C   0  0  0  0  0  0  0  0  0  0  0  0
   20.2970  -12.4570  -24.1340 O   0  0  0  0  0  0  0  0  0  0  0  0
   18.5770  -12.2430  -22.7210 N   0  0  0  0  0  0  0  0  0  0  0  0
   19.8850  -17.0260  -25.5630 N   0  0  0  0  0  0  0  0  0  0  0  0
   19.4980  -17.9920  -24.5420 C   0  0  2  0  0  0  0  0  0  0  0  0
   17.9690  -18.1270  -24.4880 C   0  0  0  0  0  0  0  0  0  0  0  0
   17.4510  -19.1590  -24.0620 O   0  0  0  0  0  0  0  0  0  0  0  0
   20.0400  -17.6030  -23.1540 C   0  0  2  0  0  0  0  0  0  0  0  0
   19.5850  -16.2900  -22.8050 O   0  0  0  0  0  0  0  0  0  0  0  0
   21.5610  -17.6230  -23.1560 C   0  0  0  0  0  0  0  0  0  0  0  0
   17.2500  -17.0860  -24.9080 N   0  0  0  0  0  0  0  0  0  0  0  0
   15.7860  -17.1140  -24.8960 C   0  0  2  0  0  0  0  0  0  0  0  0
   15.2640  -17.6730  -26.2250 C   0  0  0  0  0  0  0  0  0  0  0  0
   15.2750  -16.9840  -27.2450 O   0  0  0  0  0  0  0  0  0  0  0  0
   15.2320  -15.7030  -24.6500 C   0  0  0  0  0  0  0  0  0  0  0  0
   13.7080  -15.6570  -24.5820 C   0  0  0  0  0  0  0  0  0  0  0  0
   13.0200  -16.6390  -24.8620 O   0  0  0  0  0  0  0  0  0  0  0  0
   13.1770  -14.4970  -24.2120 N   0  0  0  0  0  0  0  0  0  0  0  0
   14.8020  -18.9230  -26.1990 N   0  0  0  0  0  0  0  0  0  0  0  0
   14.3360  -19.6180  -27.4050 C   0  0  2  0  0  0  0  0  0  0  0  0
   13.1450  -18.9880  -28.1350 C   0  0  0  0  0  0  0  0  0  0  0  0
   12.8680  -19.3460  -29.2800 O   0  0  0  0  0  0  0  0  0  0  0  0
   13.9750  -21.0680  -27.0640 C   0  0  0  0  0  0  0  0  0  0  0  0
   12.9030  -21.1710  -26.0040 C   0  0  0  0  0  0  0  0  0  0  0  0
   11.7100  -21.1690  -26.3090 O   0  0  0  0  0  0  0  0  0  0  0  0
   13.3200  -21.2580  -24.7500 N   0  0  0  0  0  0  0  0  0  0  0  0
   15.8050  -21.6690  -32.3870 N   0  0  0  0  0  0  0  0  0  0  0  0
   16.5170  -22.7470  -31.7140 C   0  0  2  0  0  0  0  0  0  0  0  0
   15.4690  -23.4850  -30.8910 C   0  0  0  0  0  0  0  0  0  0  0  0
   14.6180  -22.8560  -30.2610 O   0  0  0  0  0  0  0  0  0  0  0  0
   17.6660  -22.2180  -30.8530 C   0  0  0  0  0  0  0  0  0  0  0  0
   18.4400  -23.2980  -30.1120 C   0  0  0  0  0  0  0  0  0  0  0  0
   18.0980  -23.3390  -28.6400 C   0  0  0  0  0  0  0  0  0  0  0  0
   18.4850  -22.1120  -27.9530 N   0  0  0  0  0  0  0  0  0  0  0  0
   18.3380  -21.9160  -26.6480 C   0  0  0  0  0  0  0  0  0  0  0  0
   17.8130  -22.8670  -25.8880 N   0  0  0  0  0  0  0  0  0  0  0  0
   18.7190  -20.7710  -26.1030 N   0  0  0  0  0  0  0  0  0  0  0  0
   15.5230  -24.8130  -30.8940 N   0  0  0  0  0  0  0  0  0  0  0  0
   14.5710  -25.5980  -30.1170 C   0  0  2  0  0  0  0  0  0  0  0  0
   14.6550  -25.3680  -28.6110 C   0  0  0  0  0  0  0  0  0  0  0  0
   15.7350  -25.3370  -28.0220 O   0  0  0  0  0  0  0  0  0  0  0  0
   14.7770  -27.0860  -30.4050 C   0  0  0  0  0  0  0  0  0  0  0  0
   14.1700  -27.5150  -31.7260 C   0  0  0  0  0  0  0  0  0  0  0  0
   13.8440  -26.6310  -32.5470 O   0  0  0  0  0  0  0  0  0  0  0  0
   14.0330  -28.7360  -31.9500 O   0  0  0  0  0  0  0  0  0  0  0  0
   13.4810  -25.2220  -28.0060 N   0  0  0  0  0  0  0  0  0  0  0  0
   13.3280  -25.1020  -26.5690 C   0  0  0  0  0  0  0  0  0  0  0  0
   13.3070  -26.4540  -25.8920 C   0  0  0  0  0  0  0  0  0  0  0  0
   13.0640  -27.4710  -26.5360 O   0  0  0  0  0  0  0  0  0  0  0  0
   13.5870  -26.4770  -24.5950 N   0  0  0  0  0  0  0  0  0  0  0  0
   13.4600  -27.7020  -23.8310 C   0  0  0  0  0  0  0  0  0  0  0  0
   14.0470  -27.6260  -22.4390 C   0  0  0  0  0  0  0  0  0  0  0  0
   14.5890  -26.6010  -22.0380 O   0  0  0  0  0  0  0  0  0  0  0  0
   13.9270  -28.7300  -21.7110 N   0  0  0  0  0  0  0  0  0  0  0  0
   14.4650  -28.8850  -20.3630 C   0  0  2  0  0  0  0  0  0  0  0  0
   15.7070  -29.7390  -20.5280 C   0  0  0  0  0  0  0  0  0  0  0  0
   16.2750  -30.2690  -19.5730 O   0  0  0  0  0  0  0  0  0  0  0  0
   13.4600  -29.5350  -19.4330 C   0  0  0  0  0  0  0  0  0  0  0  0
   16.0960  -29.8530  -21.7920 N   0  0  0  0  0  0  0  0  0  0  0  0
   17.2250  -30.6430  -22.2420 C   0  0  2  0  0  0  0  0  0  0  0  0
   18.5830  -30.2420  -21.6860 C   0  0  0  0  0  0  0  0  0  0  0  0
   18.7360  -29.2340  -20.9960 O   0  0  0  0  0  0  0  0  0  0  0  0
   17.3060  -30.5410  -23.7650 C   0  0  0  0  0  0  0  0  0  0  0  0
   15.9990  -30.8790  -24.4390 C   0  0  0  0  0  0  0  0  0  0  0  0
   15.4850  -30.0940  -25.2380 O   0  0  0  0  0  0  0  0  0  0  0  0
   15.4530  -32.0470  -24.1280 N   0  0  0  0  0  0  0  0  0  0  0  0
   19.5590  -31.0760  -22.0200 N   0  0  0  0  0  0  0  0  0  0  0  0
   20.9540  -30.9210  -21.6420 C   0  0  2  0  0  0  0  0  0  0  0  0
   21.7120  -31.9850  -22.4180 C   0  0  0  0  0  0  0  0  0  0  0  0
   22.3950  -32.8460  -21.8660 O   0  0  0  0  0  0  0  0  0  0  0  0
   21.1670  -31.0360  -20.1340 C   0  0  0  0  0  0  0  0  0  0  0  0
   21.3930  -29.6820  -19.4820 C   0  0  0  0  0  0  0  0  0  0  0  0
   22.1510  -28.8550  -19.9910 O   0  0  0  0  0  0  0  0  0  0  0  0
   20.7280  -29.4460  -18.3570 N   0  0  0  0  0  0  0  0  0  0  0  0
  2  1  1  6
  3  2  1  0
  4  3  2  0
  5  2  1  0
  6  5  1  0
  7  6  2  0
  8  6  1  0
 10  9  1  6
 11 10  1  0
 12 11  2  0
 13 10  1  0
 14 13  1  0
 13 15  1  6
 16 11  1  0
 17 16  1  0
 18 17  1  0
 19 18  2  0
 17 20  1  6
 21 20  1  0
 22 21  2  0
 23 21  1  0
 24 18  1  0
 25 24  1  0
 26 25  1  0
 27 26  2  0
 25 28  1  1
 29 28  1  0
 30 29  2  0
 31 29  1  0
 33 32  1  1
 34 33  1  0
 35 34  2  0
 36 33  1  0
 37 36  1  0
 38 37  1  0
 39 38  1  0
 40 39  1  0
 41 40  1  0
 42 40  2  0
 43 34  1  0
 44 43  1  0
 45 44  1  0
 46 45  2  0
 44 47  1  1
 48 47  1  0
 49 48  2  0
 50 48  1  0
 51 45  1  0
 52 51  1  0
 53 52  1  0
 54 53  2  0
 55 53  1  0
 56 55  1  0
 57 56  1  0
 58 57  2  0
 59 57  1  0
 60 59  1  0
 61 60  1  0
 62 61  2  0
 60 63  1  1
 64 61  1  0
 65 64  1  0
 66 65  1  0
 67 66  2  0
 65 68  1  6
 69 68  1  0
 70 69  2  0
 71 69  1  0
 72 66  1  0
 73 72  1  0
 74 73  1  0
 75 74  2  0
 73 76  1  1
 77 76  1  0
 78 77  2  0
 79 77  1  0
M  END
$$$$
