
     RDKit          3D

133129  0  0  0  0  0  0  0  0999 V2000
  -34.5780  -66.8270  -42.3580 N   0  0  0  0  0  0  0  0  0  0  0  0
  -35.4450  -66.2370  -43.3630 C   0  0  2  0  0  0  0  0  0  0  0  0
  -36.8940  -66.5820  -43.0670 C   0  0  0  0  0  0  0  0  0  0  0  0
  -37.1950  -67.6920  -42.6290 O   0  0  0  0  0  0  0  0  0  0  0  0
  -35.0660  -66.7220  -44.7810 C   0  0  2  0  0  0  0  0  0  0  0  0
  -33.7310  -66.3040  -45.0900 O   0  0  0  0  0  0  0  0  0  0  0  0
  -36.0230  -66.1670  -45.8290 C   0  0  0  0  0  0  0  0  0  0  0  0
  -31.9240  -53.4380  -47.9570 N   0  0  0  0  0  0  0  0  0  0  0  0
  -30.9680  -52.4520  -47.4650 C   0  0  2  0  0  0  0  0  0  0  0  0
  -29.6790  -52.4150  -48.2670 C   0  0  0  0  0  0  0  0  0  0  0  0
  -28.9010  -51.4700  -48.1490 O   0  0  0  0  0  0  0  0  0  0  0  0
  -30.6370  -52.7340  -45.9980 C   0  0  0  0  0  0  0  0  0  0  0  0
  -31.8070  -52.7950  -45.2050 O   0  0  0  0  0  0  0  0  0  0  0  0
  -29.4420  -53.4390  -49.0740 N   0  0  0  0  0  0  0  0  0  0  0  0
  -28.2460  -53.4640  -49.8910 C   0  0  0  0  0  0  0  0  0  0  0  0
  -27.9760  -54.8020  -50.5340 C   0  0  0  0  0  0  0  0  0  0  0  0
  -28.7540  -55.7460  -50.3880 O   0  0  0  0  0  0  0  0  0  0  0  0
  -26.8610  -54.8860  -51.2510 N   0  0  0  0  0  0  0  0  0  0  0  0
  -26.5010  -56.1230  -51.9050 C   0  0  0  0  0  0  0  0  0  0  0  0
  -26.5220  -56.0600  -53.4180 C   0  0  0  0  0  0  0  0  0  0  0  0
  -26.7130  -55.0080  -54.0280 O   0  0  0  0  0  0  0  0  0  0  0  0
  -26.3210  -57.2300  -54.0070 N   0  0  0  0  0  0  0  0  0  0  0  0
  -26.3040  -57.4490  -55.4460 C   0  0  2  0  0  0  0  0  0  0  0  0
  -27.7070  -57.2260  -56.0030 C   0  0  0  0  0  0  0  0  0  0  0  0
  -28.6820  -57.2740  -55.2650 O   0  0  0  0  0  0  0  0  0  0  0  0
  -25.7860  -58.8460  -55.7840 C   0  0  0  0  0  0  0  0  0  0  0  0
  -24.2870  -58.9700  -55.5810 C   0  0  0  0  0  0  0  0  0  0  0  0
  -23.5930  -57.9330  -55.6420 O   0  0  0  0  0  0  0  0  0  0  0  0
  -23.8020  -60.1010  -55.3700 O   0  0  0  0  0  0  0  0  0  0  0  0
  -29.5560  -59.0680  -57.6720 N   0  0  0  0  0  0  0  0  0  0  0  0
  -30.4460  -60.2170  -57.5310 C   0  0  2  0  0  0  0  0  0  0  0  0
  -31.2530  -60.1700  -56.2280 C   0  0  0  0  0  0  0  0  0  0  0  0
  -32.3320  -60.7550  -56.1500 O   0  0  0  0  0  0  0  0  0  0  0  0
  -29.6510  -61.5300  -57.5590 C   0  0  0  0  0  0  0  0  0  0  0  0
  -29.0000  -61.8900  -58.8840 C   0  0  0  0  0  0  0  0  0  0  0  0
  -27.7550  -61.0730  -59.1650 C   0  0  0  0  0  0  0  0  0  0  0  0
  -27.2190  -60.4610  -58.2170 O   0  0  0  0  0  0  0  0  0  0  0  0
  -27.3040  -61.0540  -60.3290 O   0  0  0  0  0  0  0  0  0  0  0  0
  -30.7390  -59.4860  -55.2080 N   0  0  0  0  0  0  0  0  0  0  0  0
  -31.4440  -59.4330  -53.9260 C   0  0  2  0  0  0  0  0  0  0  0  0
  -32.2140  -58.1240  -53.7280 C   0  0  0  0  0  0  0  0  0  0  0  0
  -33.3270  -58.1350  -53.2030 O   0  0  0  0  0  0  0  0  0  0  0  0
  -30.5010  -59.6580  -52.7230 C   0  0  2  0  0  0  0  0  0  0  0  0
  -29.1580  -58.9780  -52.9440 C   0  0  0  0  0  0  0  0  0  0  0  0
  -30.2980  -61.1460  -52.4810 C   0  0  0  0  0  0  0  0  0  0  0  0
  -28.1210  -59.3540  -51.9400 C   0  0  0  0  0  0  0  0  0  0  0  0
  -26.3740  -67.4840  -59.5820 N   0  0  0  0  0  0  0  0  0  0  0  0
  -26.9310  -67.8400  -58.2860 C   0  0  2  0  0  0  0  0  0  0  0  0
  -26.2690  -69.0740  -57.6870 C   0  0  0  0  0  0  0  0  0  0  0  0
  -26.4020  -69.3360  -56.4930 O   0  0  0  0  0  0  0  0  0  0  0  0
  -28.4440  -68.0340  -58.4080 C   0  0  0  0  0  0  0  0  0  0  0  0
  -28.8550  -69.0770  -59.3900 C   0  0  0  0  0  0  0  0  0  0  0  0
  -29.1660  -68.8930  -60.7070 C   0  0  0  0  0  0  0  0  0  0  0  0
  -29.0770  -70.4620  -59.1150 C   0  0  0  0  0  0  0  0  0  0  0  0
  -29.5260  -70.0890  -61.2780 N   0  0  0  0  0  0  0  0  0  0  0  0
  -29.4850  -71.0680  -60.3200 C   0  0  0  0  0  0  0  0  0  0  0  0
  -28.9550  -71.2530  -57.9700 C   0  0  0  0  0  0  0  0  0  0  0  0
  -29.7710  -72.4280  -60.4100 C   0  0  0  0  0  0  0  0  0  0  0  0
  -29.2380  -72.6010  -58.0610 C   0  0  0  0  0  0  0  0  0  0  0  0
  -29.6420  -73.1760  -59.2730 C   0  0  0  0  0  0  0  0  0  0  0  0
  -25.5560  -69.8310  -58.5150 N   0  0  0  0  0  0  0  0  0  0  0  0
  -24.8170  -70.9870  -58.0230 C   0  0  2  0  0  0  0  0  0  0  0  0
  -23.6150  -70.5530  -57.1760 C   0  0  0  0  0  0  0  0  0  0  0  0
  -22.9960  -71.3750  -56.5010 O   0  0  0  0  0  0  0  0  0  0  0  0
  -24.3790  -71.8730  -59.1920 C   0  0  0  0  0  0  0  0  0  0  0  0
  -25.5440  -72.4140  -60.0180 C   0  0  0  0  0  0  0  0  0  0  0  0
  -25.8830  -71.5500  -61.2180 C   0  0  0  0  0  0  0  0  0  0  0  0
  -25.9380  -70.3240  -61.1220 O   0  0  0  0  0  0  0  0  0  0  0  0
  -26.1260  -72.1900  -62.3570 N   0  0  0  0  0  0  0  0  0  0  0  0
  -23.2880  -69.2630  -57.2190 N   0  0  0  0  0  0  0  0  0  0  0  0
  -22.2340  -68.7040  -56.3860 C   0  0  0  0  0  0  0  0  0  0  0  0
  -20.7660  -68.8030  -56.7580 C   0  0  0  0  0  0  0  0  0  0  0  0
  -20.0020  -69.4820  -56.0730 O   0  0  0  0  0  0  0  0  0  0  0  0
  -20.3600  -68.1170  -57.8210 N   0  0  0  0  0  0  0  0  0  0  0  0
  -19.0100  -68.2710  -58.3620 C   0  0  2  0  0  0  0  0  0  0  0  0
  -18.5130  -66.9670  -58.9730 C   0  0  0  0  0  0  0  0  0  0  0  0
  -17.7430  -66.2290  -58.3570 O   0  0  0  0  0  0  0  0  0  0  0  0
  -18.9250  -69.3770  -59.4370 C   0  0  2  0  0  0  0  0  0  0  0  0
  -19.9800  -69.2020  -60.3890 O   0  0  0  0  0  0  0  0  0  0  0  0
  -19.0340  -70.7640  -58.8160 C   0  0  0  0  0  0  0  0  0  0  0  0
  -36.9930  -60.9700  -44.4720 N   0  0  0  0  0  0  0  0  0  0  0  0
  -36.0750  -60.9680  -43.3430 C   0  0  2  0  0  0  0  0  0  0  0  0
  -36.4330  -59.7900  -42.4450 C   0  0  0  0  0  0  0  0  0  0  0  0
  -36.7260  -58.6990  -42.9350 O   0  0  0  0  0  0  0  0  0  0  0  0
  -34.5980  -60.8930  -43.7800 C   0  0  2  0  0  0  0  0  0  0  0  0
  -34.3640  -59.6670  -44.4830 O   0  0  0  0  0  0  0  0  0  0  0  0
  -34.2500  -62.0650  -44.6880 C   0  0  0  0  0  0  0  0  0  0  0  0
  -35.5330  -56.9790  -39.5480 N   0  0  0  0  0  0  0  0  0  0  0  0
  -34.3830  -56.2440  -39.0290 C   0  0  2  0  0  0  0  0  0  0  0  0
  -34.0160  -56.5660  -37.5830 C   0  0  0  0  0  0  0  0  0  0  0  0
  -34.8720  -56.6450  -36.7030 O   0  0  0  0  0  0  0  0  0  0  0  0
  -34.6430  -54.7380  -39.1430 C   0  0  0  0  0  0  0  0  0  0  0  0
  -34.4360  -54.2120  -40.5480 C   0  0  0  0  0  0  0  0  0  0  0  0
  -34.3730  -55.0300  -41.4900 O   0  0  0  0  0  0  0  0  0  0  0  0
  -34.3400  -52.9770  -40.7110 O   0  0  0  0  0  0  0  0  0  0  0  0
  -38.0840  -56.6320  -44.6640 N   0  0  0  0  0  0  0  0  0  0  0  0
  -37.6070  -56.3740  -46.0120 C   0  0  2  0  0  0  0  0  0  0  0  0
  -37.5970  -57.6920  -46.7810 C   0  0  0  0  0  0  0  0  0  0  0  0
  -37.2540  -58.7310  -46.2250 O   0  0  0  0  0  0  0  0  0  0  0  0
  -36.1970  -55.7660  -45.9710 C   0  0  0  0  0  0  0  0  0  0  0  0
  -36.0670  -54.5560  -45.0620 C   0  0  0  0  0  0  0  0  0  0  0  0
  -34.6560  -54.0750  -44.9540 C   0  0  0  0  0  0  0  0  0  0  0  0
  -34.4960  -53.0630  -43.9180 N   0  0  0  0  0  0  0  0  0  0  0  0
  -34.4380  -51.7600  -44.1730 C   0  0  0  0  0  0  0  0  0  0  0  0
  -34.5010  -51.3230  -45.4250 N   0  0  0  0  0  0  0  0  0  0  0  0
  -34.2910  -50.8950  -43.1820 N   0  0  0  0  0  0  0  0  0  0  0  0
  -37.9760  -57.6500  -48.0630 N   0  0  0  0  0  0  0  0  0  0  0  0
  -37.9630  -58.8610  -48.8770 C   0  0  2  0  0  0  0  0  0  0  0  0
  -36.5840  -59.4620  -49.0390 C   0  0  0  0  0  0  0  0  0  0  0  0
  -35.8750  -59.1440  -49.9840 O   0  0  0  0  0  0  0  0  0  0  0  0
  -38.4680  -58.3680  -50.2310 C   0  0  0  0  0  0  0  0  0  0  0  0
  -38.2800  -56.8800  -50.2770 C   0  0  0  0  0  0  0  0  0  0  0  0
  -38.4650  -56.4750  -48.8070 C   0  0  0  0  0  0  0  0  0  0  0  0
  -36.2210  -60.3340  -48.1050 N   0  0  0  0  0  0  0  0  0  0  0  0
  -34.9150  -60.9730  -48.0760 C   0  0  0  0  0  0  0  0  0  0  0  0
  -34.9840  -62.3050  -48.8000 C   0  0  0  0  0  0  0  0  0  0  0  0
  -35.6580  -62.4190  -49.8240 O   0  0  0  0  0  0  0  0  0  0  0  0
  -34.2680  -63.3120  -48.3030 N   0  0  0  0  0  0  0  0  0  0  0  0
  -34.2270  -64.6030  -48.9730 C   0  0  0  0  0  0  0  0  0  0  0  0
  -33.1210  -65.5250  -48.4970 C   0  0  0  0  0  0  0  0  0  0  0  0
  -33.3000  -66.3000  -47.5580 O   0  0  0  0  0  0  0  0  0  0  0  0
  -31.9680  -65.4340  -49.1490 N   0  0  0  0  0  0  0  0  0  0  0  0
  -30.8340  -66.2670  -48.8020 C   0  0  0  0  0  0  0  0  0  0  0  0
  -30.4360  -67.2880  -49.8530 C   0  0  0  0  0  0  0  0  0  0  0  0
  -29.8620  -66.9340  -50.8810 O   0  0  0  0  0  0  0  0  0  0  0  0
  -30.7350  -68.5590  -49.5970 N   0  0  0  0  0  0  0  0  0  0  0  0
  -30.5860  -69.6030  -50.6100 C   0  0  2  0  0  0  0  0  0  0  0  0
  -31.8080  -69.9400  -51.4480 C   0  0  0  0  0  0  0  0  0  0  0  0
  -32.9320  -69.9500  -50.9460 O   0  0  0  0  0  0  0  0  0  0  0  0
  -30.1360  -70.9100  -49.9500 C   0  0  0  0  0  0  0  0  0  0  0  0
  -29.0340  -70.7110  -48.9440 C   0  0  0  0  0  0  0  0  0  0  0  0
  -29.2460  -70.8650  -47.7420 O   0  0  0  0  0  0  0  0  0  0  0  0
  -27.8430  -70.3830  -49.4270 N   0  0  0  0  0  0  0  0  0  0  0  0
  2  1  1  1
  3  2  1  0
  4  3  2  0
  5  2  1  0
  6  5  1  0
  5  7  1  6
  9  8  1  6
 10  9  1  0
 11 10  2  0
 12  9  1  0
 13 12  1  0
 14 10  1  0
 15 14  1  0
 16 15  1  0
 17 16  2  0
 18 16  1  0
 19 18  1  0
 20 19  1  0
 21 20  2  0
 22 20  1  0
 23 22  1  0
 24 23  1  0
 25 24  2  0
 23 26  1  1
 27 26  1  0
 28 27  2  0
 29 27  1  0
 31 30  1  1
 32 31  1  0
 33 32  2  0
 34 31  1  0
 35 34  1  0
 36 35  1  0
 37 36  2  0
 38 36  1  0
 39 32  1  0
 40 39  1  6
 41 40  1  0
 42 41  2  0
 43 40  1  0
 44 43  1  0
 43 45  1  6
 46 44  1  0
 48 47  1  6
 49 48  1  0
 50 49  2  0
 51 48  1  0
 52 51  1  0
 53 52  2  0
 54 52  1  0
 55 53  1  0
 56 55  1  0
 56 54  2  0
 57 54  1  0
 58 56  1  0
 59 57  2  0
 60 58  2  0
 60 59  1  0
 61 49  1  0
 62 61  1  0
 63 62  1  0
 64 63  2  0
 62 65  1  6
 66 65  1  0
 67 66  1  0
 68 67  2  0
 69 67  1  0
 70 63  1  0
 71 70  1  0
 72 71  1  0
 73 72  2  0
 74 72  1  0
 75 74  1  6
 76 75  1  0
 77 76  2  0
 78 75  1  0
 79 78  1  0
 78 80  1  1
 82 81  1  6
 83 82  1  0
 84 83  2  0
 85 82  1  0
 86 85  1  0
 85 87  1  6
 89 88  1  1
 90 89  1  0
 91 90  2  0
 92 89  1  0
 93 92  1  0
 94 93  2  0
 95 93  1  0
 97 96  1  1
 98 97  1  0
 99 98  2  0
100 97  1  0
101100  1  0
102101  1  0
103102  1  0
104103  1  0
105104  1  0
106104  2  0
107 98  1  0
108107  1  0
108109  1  6
110109  2  0
111108  1  0
112111  1  0
113112  1  0
113107  1  0
114109  1  0
115114  1  0
116115  1  0
117116  2  0
118116  1  0
119118  1  0
120119  1  0
121120  2  0
122120  1  0
123122  1  0
124123  1  0
125124  2  0
126124  1  0
127126  1  0
128127  1  0
129128  2  0
127130  1  1
131130  1  0
132131  2  0
133131  1  0
M  END
$$$$
