
     RDKit          3D

 71 68  0  0  0  0  0  0  0  0999 V2000
  -36.9290  -69.9570  -36.7410 N   0  0  0  0  0  0  0  0  0  0  0  0
  -36.8860  -69.2160  -35.4860 C   0  0  2  0  0  0  0  0  0  0  0  0
  -37.2540  -67.7450  -35.5830 C   0  0  0  0  0  0  0  0  0  0  0  0
  -36.3960  -66.9210  -35.8980 O   0  0  0  0  0  0  0  0  0  0  0  0
  -35.4580  -69.2400  -34.9410 C   0  0  0  0  0  0  0  0  0  0  0  0
  -35.1760  -70.3850  -34.0130 C   0  0  0  0  0  0  0  0  0  0  0  0
  -34.7930  -71.4710  -34.4460 O   0  0  0  0  0  0  0  0  0  0  0  0
  -35.3310  -70.1350  -32.7180 N   0  0  0  0  0  0  0  0  0  0  0  0
  -37.6720  -65.5580  -33.4790 N   0  0  0  0  0  0  0  0  0  0  0  0
  -36.8770  -64.7290  -32.5810 C   0  0  2  0  0  0  0  0  0  0  0  0
  -35.4980  -64.4560  -33.1710 C   0  0  0  0  0  0  0  0  0  0  0  0
  -34.8650  -63.4480  -32.8610 O   0  0  0  0  0  0  0  0  0  0  0  0
  -36.7130  -65.3850  -31.1960 C   0  0  2  0  0  0  0  0  0  0  0  0
  -36.3990  -66.7750  -31.3570 O   0  0  0  0  0  0  0  0  0  0  0  0
  -37.9940  -65.2530  -30.3880 C   0  0  0  0  0  0  0  0  0  0  0  0
  -35.0380  -65.3700  -34.0210 N   0  0  0  0  0  0  0  0  0  0  0  0
  -33.7330  -65.2390  -34.6560 C   0  0  2  0  0  0  0  0  0  0  0  0
  -33.8370  -64.4870  -35.9790 C   0  0  0  0  0  0  0  0  0  0  0  0
  -34.2980  -65.0430  -36.9760 O   0  0  0  0  0  0  0  0  0  0  0  0
  -33.1210  -66.6260  -34.8700 C   0  0  0  0  0  0  0  0  0  0  0  0
  -31.7450  -66.5720  -35.4930 C   0  0  0  0  0  0  0  0  0  0  0  0
  -31.6070  -66.4400  -36.7060 O   0  0  0  0  0  0  0  0  0  0  0  0
  -30.7170  -66.6960  -34.6630 N   0  0  0  0  0  0  0  0  0  0  0  0
  -33.4170  -63.2240  -35.9870 N   0  0  0  0  0  0  0  0  0  0  0  0
  -33.5270  -62.3860  -37.1800 C   0  0  2  0  0  0  0  0  0  0  0  0
  -32.7570  -62.9160  -38.3860 C   0  0  0  0  0  0  0  0  0  0  0  0
  -32.9860  -62.4820  -39.5150 O   0  0  0  0  0  0  0  0  0  0  0  0
  -33.0430  -60.9690  -36.8790 C   0  0  0  0  0  0  0  0  0  0  0  0
  -31.6050  -60.9380  -36.4070 C   0  0  0  0  0  0  0  0  0  0  0  0
  -30.6780  -60.8630  -37.2140 O   0  0  0  0  0  0  0  0  0  0  0  0
  -31.4110  -61.0070  -35.0990 N   0  0  0  0  0  0  0  0  0  0  0  0
  -36.4070  -60.0060  -41.1360 N   0  0  0  0  0  0  0  0  0  0  0  0
  -36.7810  -58.9640  -40.1880 C   0  0  2  0  0  0  0  0  0  0  0  0
  -35.5120  -58.3040  -39.6590 C   0  0  0  0  0  0  0  0  0  0  0  0
  -34.5320  -58.9850  -39.3590 O   0  0  0  0  0  0  0  0  0  0  0  0
  -37.6280  -59.5410  -39.0540 C   0  0  0  0  0  0  0  0  0  0  0  0
  -38.0480  -58.5330  -38.0030 C   0  0  0  0  0  0  0  0  0  0  0  0
  -37.3080  -58.7770  -36.7080 C   0  0  0  0  0  0  0  0  0  0  0  0
  -37.2300  -60.2010  -36.4060 N   0  0  0  0  0  0  0  0  0  0  0  0
  -36.6720  -60.7020  -35.3100 C   0  0  0  0  0  0  0  0  0  0  0  0
  -36.1430  -59.8910  -34.4050 N   0  0  0  0  0  0  0  0  0  0  0  0
  -36.6490  -62.0120  -35.1160 N   0  0  0  0  0  0  0  0  0  0  0  0
  -35.5330  -56.9790  -39.5480 N   0  0  0  0  0  0  0  0  0  0  0  0
  -34.3830  -56.2440  -39.0290 C   0  0  2  0  0  0  0  0  0  0  0  0
  -34.0160  -56.5660  -37.5830 C   0  0  0  0  0  0  0  0  0  0  0  0
  -34.8720  -56.6450  -36.7030 O   0  0  0  0  0  0  0  0  0  0  0  0
  -34.6430  -54.7380  -39.1430 C   0  0  0  0  0  0  0  0  0  0  0  0
  -34.4360  -54.2120  -40.5480 C   0  0  0  0  0  0  0  0  0  0  0  0
  -34.3730  -55.0300  -41.4900 O   0  0  0  0  0  0  0  0  0  0  0  0
  -34.3400  -52.9770  -40.7110 O   0  0  0  0  0  0  0  0  0  0  0  0
  -32.7170  -56.7420  -37.3660 N   0  0  0  0  0  0  0  0  0  0  0  0
  -32.1400  -56.9430  -36.0490 C   0  0  0  0  0  0  0  0  0  0  0  0
  -31.9020  -55.6170  -35.3550 C   0  0  0  0  0  0  0  0  0  0  0  0
  -31.8400  -54.5790  -36.0120 O   0  0  0  0  0  0  0  0  0  0  0  0
  -31.7780  -55.6360  -34.0330 N   0  0  0  0  0  0  0  0  0  0  0  0
  -31.4160  -54.4310  -33.3100 C   0  0  0  0  0  0  0  0  0  0  0  0
  -31.6250  -54.4970  -31.8110 C   0  0  0  0  0  0  0  0  0  0  0  0
  -32.4340  -55.2820  -31.3170 O   0  0  0  0  0  0  0  0  0  0  0  0
  -30.8860  -53.6630  -31.0860 N   0  0  0  0  0  0  0  0  0  0  0  0
  -31.0110  -53.5820  -29.6380 C   0  0  2  0  0  0  0  0  0  0  0  0
  -31.7890  -52.3290  -29.2510 C   0  0  0  0  0  0  0  0  0  0  0  0
  -31.2830  -51.4660  -28.5320 O   0  0  0  0  0  0  0  0  0  0  0  0
  -29.6410  -53.5880  -28.9790 C   0  0  0  0  0  0  0  0  0  0  0  0
  -33.0200  -52.2360  -29.7430 N   0  0  0  0  0  0  0  0  0  0  0  0
  -33.8740  -51.0850  -29.4790 C   0  0  2  0  0  0  0  0  0  0  0  0
  -35.0490  -51.4690  -28.5860 C   0  0  0  0  0  0  0  0  0  0  0  0
  -35.3880  -52.6470  -28.4630 O   0  0  0  0  0  0  0  0  0  0  0  0
  -34.3810  -50.4850  -30.7950 C   0  0  0  0  0  0  0  0  0  0  0  0
  -34.9820  -49.0980  -30.6220 C   0  0  0  0  0  0  0  0  0  0  0  0
  -35.3660  -48.7030  -29.5200 O   0  0  0  0  0  0  0  0  0  0  0  0
  -35.0700  -48.3540  -31.7180 N   0  0  0  0  0  0  0  0  0  0  0  0
  2  1  1  6
  3  2  1  0
  4  3  2  0
  5  2  1  0
  6  5  1  0
  7  6  2  0
  8  6  1  0
 10  9  1  6
 11 10  1  0
 12 11  2  0
 13 10  1  0
 14 13  1  0
 13 15  1  1
 16 11  1  0
 17 16  1  0
 18 17  1  0
 19 18  2  0
 17 20  1  6
 21 20  1  0
 22 21  2  0
 23 21  1  0
 24 18  1  0
 25 24  1  0
 26 25  1  0
 27 26  2  0
 25 28  1  1
 29 28  1  0
 30 29  2  0
 31 29  1  0
 33 32  1  6
 34 33  1  0
 35 34  2  0
 36 33  1  0
 37 36  1  0
 38 37  1  0
 39 38  1  0
 40 39  1  0
 41 40  1  0
 42 40  2  0
 43 34  1  0
 44 43  1  0
 45 44  1  0
 46 45  2  0
 44 47  1  1
 48 47  1  0
 49 48  2  0
 50 48  1  0
 51 45  1  0
 52 51  1  0
 53 52  1  0
 54 53  2  0
 55 53  1  0
 56 55  1  0
 57 56  1  0
 58 57  2  0
 59 57  1  0
 60 59  1  0
 61 60  1  0
 62 61  2  0
 60 63  1  1
 64 61  1  0
 65 64  1  0
 66 65  1  0
 67 66  2  0
 65 68  1  6
 69 68  1  0
 70 69  2  0
 71 69  1  0
M  END
$$$$
