
     RDKit          3D

125119  0  0  0  0  0  0  0  0999 V2000
   -1.8920  -18.8150   45.1800 N   0  0  0  0  0  0  0  0  0  0  0  0
   -0.5740  -18.8180   44.5640 C   0  0  2  0  0  0  0  0  0  0  0  0
    0.4840  -19.1610   45.5940 C   0  0  0  0  0  0  0  0  0  0  0  0
    0.5240  -18.5640   46.6710 O   0  0  0  0  0  0  0  0  0  0  0  0
   -0.2730  -17.4450   43.9690 C   0  0  0  0  0  0  0  0  0  0  0  0
   -1.5620  -16.8510   42.8550 S   0  0  0  0  0  0  0  0  0  0  0  0
    1.3330  -20.1290   45.2640 N   0  0  0  0  0  0  0  0  0  0  0  0
    2.5020  -20.4170   46.0820 C   0  0  2  0  0  0  0  0  0  0  0  0
    3.3980  -19.1870   46.1020 C   0  0  0  0  0  0  0  0  0  0  0  0
    3.7870  -18.7110   47.1680 O   0  0  0  0  0  0  0  0  0  0  0  0
    3.2870  -21.6130   45.5300 C   0  0  0  0  0  0  0  0  0  0  0  0
    2.6030  -22.9420   45.7870 C   0  0  0  0  0  0  0  0  0  0  0  0
    1.5340  -22.9690   46.4420 O   0  0  0  0  0  0  0  0  0  0  0  0
    3.1510  -23.9680   45.3270 O   0  0  0  0  0  0  0  0  0  0  0  0
    3.6990  -18.6700   44.9140 N   0  0  0  0  0  0  0  0  0  0  0  0
    4.6270  -17.5590   44.7630 C   0  0  2  0  0  0  0  0  0  0  0  0
    3.9030  -16.2930   44.3040 C   0  0  0  0  0  0  0  0  0  0  0  0
    3.1030  -16.3250   43.3670 O   0  0  0  0  0  0  0  0  0  0  0  0
    5.7670  -17.9530   43.8010 C   0  0  2  0  0  0  0  0  0  0  0  0
    6.7030  -18.9300   44.5200 C   0  0  0  0  0  0  0  0  0  0  0  0
    6.5310  -16.7300   43.3030 C   0  0  0  0  0  0  0  0  0  0  0  0
    7.5310  -19.7910   43.6000 C   0  0  0  0  0  0  0  0  0  0  0  0
   -1.6660  -21.9660   39.5710 N   0  0  0  0  0  0  0  0  0  0  0  0
   -1.8610  -23.4070   39.4300 C   0  0  2  0  0  0  0  0  0  0  0  0
   -0.8030  -24.1420   40.2630 C   0  0  0  0  0  0  0  0  0  0  0  0
    0.0070  -23.4990   40.9360 O   0  0  0  0  0  0  0  0  0  0  0  0
   -1.7800  -23.8020   37.9480 C   0  0  0  0  0  0  0  0  0  0  0  0
   -0.8390  -23.0000   37.2460 O   0  0  0  0  0  0  0  0  0  0  0  0
   -0.8150  -25.4740   40.2290 N   0  0  0  0  0  0  0  0  0  0  0  0
    0.1180  -26.2820   41.0260 C   0  0  2  0  0  0  0  0  0  0  0  0
    1.2270  -26.9310   40.1940 C   0  0  0  0  0  0  0  0  0  0  0  0
    2.3760  -27.0010   40.6340 O   0  0  0  0  0  0  0  0  0  0  0  0
   -0.6420  -27.3500   41.7960 C   0  0  0  0  0  0  0  0  0  0  0  0
    0.8820  -27.4180   39.0060 N   0  0  0  0  0  0  0  0  0  0  0  0
    1.8420  -28.1360   38.1670 C   0  0  2  0  0  0  0  0  0  0  0  0
    2.7000  -27.1460   37.3820 C   0  0  0  0  0  0  0  0  0  0  0  0
    2.2130  -26.4700   36.4770 O   0  0  0  0  0  0  0  0  0  0  0  0
    1.1150  -29.0960   37.2160 C   0  0  0  0  0  0  0  0  0  0  0  0
    1.9810  -30.2690   36.7880 C   0  0  0  0  0  0  0  0  0  0  0  0
    3.2270  -30.1440   36.7940 O   0  0  0  0  0  0  0  0  0  0  0  0
    1.4020  -31.3210   36.4450 O   0  0  0  0  0  0  0  0  0  0  0  0
    3.9780  -27.0670   37.7360 N   0  0  0  0  0  0  0  0  0  0  0  0
    4.8960  -26.1160   37.1170 C   0  0  2  0  0  0  0  0  0  0  0  0
    5.3010  -26.5520   35.7110 C   0  0  0  0  0  0  0  0  0  0  0  0
    5.3240  -25.7370   34.7900 O   0  0  0  0  0  0  0  0  0  0  0  0
    6.1260  -25.9310   37.9890 C   0  0  0  0  0  0  0  0  0  0  0  0
    5.6260  -27.8330   35.5480 N   0  0  0  0  0  0  0  0  0  0  0  0
    5.9640  -28.3740   34.2310 C   0  0  2  0  0  0  0  0  0  0  0  0
    4.8420  -28.1170   33.2220 C   0  0  0  0  0  0  0  0  0  0  0  0
    5.1110  -27.8740   32.0460 O   0  0  0  0  0  0  0  0  0  0  0  0
    6.2720  -29.8780   34.3080 C   0  0  0  0  0  0  0  0  0  0  0  0
    7.6680  -30.1720   34.8490 C   0  0  0  0  0  0  0  0  0  0  0  0
    8.6030  -29.3840   34.5850 O   0  0  0  0  0  0  0  0  0  0  0  0
    7.8390  -31.2050   35.5290 O   0  0  0  0  0  0  0  0  0  0  0  0
    2.6720  -25.5190   33.5050 N   0  0  0  0  0  0  0  0  0  0  0  0
    2.6870  -24.0660   33.3170 C   0  0  2  0  0  0  0  0  0  0  0  0
    3.7120  -23.6610   32.2680 C   0  0  0  0  0  0  0  0  0  0  0  0
    3.4160  -22.8720   31.3730 O   0  0  0  0  0  0  0  0  0  0  0  0
    2.9960  -23.3490   34.6340 C   0  0  0  0  0  0  0  0  0  0  0  0
    1.8540  -23.3810   35.6380 C   0  0  0  0  0  0  0  0  0  0  0  0
    2.3200  -23.2400   37.0790 C   0  0  0  0  0  0  0  0  0  0  0  0
    3.3160  -22.5730   37.3650 O   0  0  0  0  0  0  0  0  0  0  0  0
    1.5930  -23.8660   37.9970 N   0  0  0  0  0  0  0  0  0  0  0  0
   14.6640  -24.1190   40.2800 N   0  0  0  0  0  0  0  0  0  0  0  0
   13.7710  -25.1460   40.8470 C   0  0  2  0  0  0  0  0  0  0  0  0
   13.9000  -25.2670   42.3700 C   0  0  0  0  0  0  0  0  0  0  0  0
   12.9340  -25.6200   43.0460 O   0  0  0  0  0  0  0  0  0  0  0  0
   13.9530  -26.5380   40.1810 C   0  0  0  0  0  0  0  0  0  0  0  0
   13.7520  -26.4410   38.6760 C   0  0  0  0  0  0  0  0  0  0  0  0
   15.3090  -27.1480   40.5050 C   0  0  0  0  0  0  0  0  0  0  0  0
   14.4780  -22.6350   44.1750 N   0  0  0  0  0  0  0  0  0  0  0  0
   13.9980  -21.3470   44.6770 C   0  0  2  0  0  0  0  0  0  0  0  0
   12.5910  -21.4690   45.2600 C   0  0  0  0  0  0  0  0  0  0  0  0
   11.6070  -21.5340   44.5200 O   0  0  0  0  0  0  0  0  0  0  0  0
   14.0150  -20.2940   43.5620 C   0  0  0  0  0  0  0  0  0  0  0  0
   13.6550  -18.9030   44.0550 C   0  0  0  0  0  0  0  0  0  0  0  0
   13.4880  -18.6670   45.2530 O   0  0  0  0  0  0  0  0  0  0  0  0
   13.5400  -17.9690   43.1230 N   0  0  0  0  0  0  0  0  0  0  0  0
   12.5130  -21.4950   46.5910 N   0  0  0  0  0  0  0  0  0  0  0  0
   11.2380  -21.5850   47.3050 C   0  0  2  0  0  0  0  0  0  0  0  0
   10.9110  -20.2810   48.0450 C   0  0  0  0  0  0  0  0  0  0  0  0
   10.1580  -20.2850   49.0210 O   0  0  0  0  0  0  0  0  0  0  0  0
   11.2620  -22.7590   48.2850 C   0  0  0  0  0  0  0  0  0  0  0  0
   11.5650  -24.1060   47.6410 C   0  0  0  0  0  0  0  0  0  0  0  0
   11.4830  -25.2330   48.6580 C   0  0  0  0  0  0  0  0  0  0  0  0
   12.6760  -25.2350   49.6050 C   0  0  0  0  0  0  0  0  0  0  0  0
   12.2740  -25.5280   51.0130 N   0  0  0  0  0  0  0  0  0  0  0  0
   11.4740  -19.1710   47.5690 N   0  0  0  0  0  0  0  0  0  0  0  0
   11.1500  -17.8500   48.0910 C   0  0  2  0  0  0  0  0  0  0  0  0
    9.7540  -17.4520   47.6120 C   0  0  0  0  0  0  0  0  0  0  0  0
    9.4790  -17.4590   46.4100 O   0  0  0  0  0  0  0  0  0  0  0  0
   12.1870  -16.8310   47.6140 C   0  0  0  0  0  0  0  0  0  0  0  0
   12.0670  -15.3980   48.1370 C   0  0  0  0  0  0  0  0  0  0  0  0
   12.0090  -15.3660   49.6600 C   0  0  0  0  0  0  0  0  0  0  0  0
   13.2270  -14.5600   47.6170 C   0  0  0  0  0  0  0  0  0  0  0  0
    8.8750  -17.1140   48.5530 N   0  0  0  0  0  0  0  0  0  0  0  0
    7.4760  -16.8310   48.2370 C   0  0  2  0  0  0  0  0  0  0  0  0
    7.3400  -15.5330   47.4620 C   0  0  0  0  0  0  0  0  0  0  0  0
    6.8560  -15.5250   46.3360 O   0  0  0  0  0  0  0  0  0  0  0  0
    6.6340  -16.7580   49.5150 C   0  0  0  0  0  0  0  0  0  0  0  0
    5.1780  -16.3830   49.2790 C   0  0  0  0  0  0  0  0  0  0  0  0
    4.3410  -16.5610   50.5340 C   0  0  0  0  0  0  0  0  0  0  0  0
    2.8580  -16.4000   50.2450 C   0  0  0  0  0  0  0  0  0  0  0  0
    2.3320  -17.4510   49.3290 N   0  0  0  0  0  0  0  0  0  0  0  0
    4.4630  -20.4960   40.3550 N   0  0  0  0  0  0  0  0  0  0  0  0
    5.7110  -21.2170   40.6320 C   0  0  2  0  0  0  0  0  0  0  0  0
    6.9430  -20.4090   40.2360 C   0  0  0  0  0  0  0  0  0  0  0  0
    6.8440  -19.4320   39.4960 O   0  0  0  0  0  0  0  0  0  0  0  0
    5.7310  -22.5440   39.8740 C   0  0  0  0  0  0  0  0  0  0  0  0
    5.8830  -22.3310   38.4810 O   0  0  0  0  0  0  0  0  0  0  0  0
    8.1040  -20.8340   40.7280 N   0  0  0  0  0  0  0  0  0  0  0  0
    9.3810  -20.2610   40.3060 C   0  0  2  0  0  0  0  0  0  0  0  0
    9.6870  -20.6390   38.8610 C   0  0  0  0  0  0  0  0  0  0  0  0
   10.1740  -19.8140   38.0890 O   0  0  0  0  0  0  0  0  0  0  0  0
   10.5210  -20.7520   41.2000 C   0  0  0  0  0  0  0  0  0  0  0  0
   10.4280  -20.2020   42.5000 O   0  0  0  0  0  0  0  0  0  0  0  0
    9.3990  -21.8900   38.5080 N   0  0  0  0  0  0  0  0  0  0  0  0
    9.7140  -22.4210   37.1840 C   0  0  2  0  0  0  0  0  0  0  0  0
    8.8190  -21.8200   36.1000 C   0  0  0  0  0  0  0  0  0  0  0  0
    9.2810  -21.5470   34.9890 O   0  0  0  0  0  0  0  0  0  0  0  0
    9.6040  -23.9470   37.1940 C   0  0  0  0  0  0  0  0  0  0  0  0
   10.0360  -24.6230   35.8990 C   0  0  0  0  0  0  0  0  0  0  0  0
   10.7540  -25.9500   36.1440 C   0  0  0  0  0  0  0  0  0  0  0  0
    9.9270  -26.9630   36.9270 C   0  0  0  0  0  0  0  0  0  0  0  0
    8.6850  -27.3580   36.2100 N   0  0  0  0  0  0  0  0  0  0  0  0
  2  1  1  1
  3  2  1  0
  4  3  2  0
  5  2  1  0
  6  5  1  0
  7  3  1  0
  8  7  1  0
  9  8  1  0
 10  9  2  0
  8 11  1  6
 12 11  1  0
 13 12  2  0
 14 12  1  0
 15  9  1  0
 16 15  1  6
 17 16  1  0
 18 17  2  0
 19 16  1  0
 20 19  1  0
 19 21  1  1
 22 20  1  0
 24 23  1  6
 25 24  1  0
 26 25  2  0
 27 24  1  0
 28 27  1  0
 29 25  1  0
 30 29  1  0
 31 30  1  0
 32 31  2  0
 30 33  1  6
 34 31  1  0
 35 34  1  0
 36 35  1  0
 37 36  2  0
 35 38  1  6
 39 38  1  0
 40 39  2  0
 41 39  1  0
 42 36  1  0
 43 42  1  0
 44 43  1  0
 45 44  2  0
 43 46  1  1
 47 44  1  0
 48 47  1  0
 49 48  1  0
 50 49  2  0
 48 51  1  1
 52 51  1  0
 53 52  2  0
 54 52  1  0
 56 55  1  1
 57 56  1  0
 58 57  2  0
 59 56  1  0
 60 59  1  0
 61 60  1  0
 62 61  2  0
 63 61  1  0
 65 64  1  6
 66 65  1  0
 67 66  2  0
 68 65  1  0
 69 68  1  0
 70 68  1  0
 72 71  1  6
 73 72  1  0
 74 73  2  0
 75 72  1  0
 76 75  1  0
 77 76  2  0
 78 76  1  0
 79 73  1  0
 80 79  1  0
 81 80  1  0
 82 81  2  0
 80 83  1  1
 84 83  1  0
 85 84  1  0
 86 85  1  0
 87 86  1  0
 88 81  1  0
 89 88  1  0
 90 89  1  0
 91 90  2  0
 89 92  1  6
 93 92  1  0
 94 93  1  0
 95 93  1  0
 96 90  1  0
 97 96  1  0
 98 97  1  0
 99 98  2  0
 97100  1  1
101100  1  0
102101  1  0
103102  1  0
104103  1  0
106105  1  6
107106  1  0
108107  2  0
109106  1  0
110109  1  0
111107  1  0
112111  1  0
113112  1  0
114113  2  0
112115  1  1
116115  1  0
117113  1  0
118117  1  0
119118  1  0
120119  2  0
118121  1  1
122121  1  0
123122  1  0
124123  1  0
125124  1  0
M  END
$$$$
