
     RDKit          3D

165161  0  0  0  0  0  0  0  0999 V2000
    2.1030  227.4920   24.6280 N   0  0  0  0  0  0  0  0  0  0  0  0
    2.6360  228.6340   23.8940 C   0  0  2  0  0  0  0  0  0  0  0  0
    3.8380  228.2410   23.0400 C   0  0  0  0  0  0  0  0  0  0  0  0
    4.4830  229.0950   22.4320 O   0  0  0  0  0  0  0  0  0  0  0  0
    3.0160  229.7490   24.8570 C   0  0  0  0  0  0  0  0  0  0  0  0
    4.1330  226.9460   22.9990 N   0  0  0  0  0  0  0  0  0  0  0  0
    5.2490  226.4370   22.2110 C   0  0  2  0  0  0  0  0  0  0  0  0
    4.7540  225.5870   21.0460 C   0  0  0  0  0  0  0  0  0  0  0  0
    3.8710  224.7450   21.2120 O   0  0  0  0  0  0  0  0  0  0  0  0
    6.1990  225.6220   23.0900 C   0  0  0  0  0  0  0  0  0  0  0  0
    6.8390  226.4160   24.2180 C   0  0  0  0  0  0  0  0  0  0  0  0
    7.6830  227.5600   23.6800 C   0  0  0  0  0  0  0  0  0  0  0  0
    8.3710  228.3170   24.8040 C   0  0  0  0  0  0  0  0  0  0  0  0
    9.2130  229.4330   24.2910 N   0  0  0  0  0  0  0  0  0  0  0  0
   -6.8220  226.8130   12.3050 N   0  0  0  0  0  0  0  0  0  0  0  0
   -6.2920  227.8210   13.2330 C   0  0  2  0  0  0  0  0  0  0  0  0
   -7.3380  228.8500   13.6520 C   0  0  0  0  0  0  0  0  0  0  0  0
   -8.2330  229.1720   12.8710 O   0  0  0  0  0  0  0  0  0  0  0  0
   -5.1660  228.4850   12.4310 C   0  0  0  0  0  0  0  0  0  0  0  0
   -5.4600  228.1630   11.0050 C   0  0  0  0  0  0  0  0  0  0  0  0
   -6.0830  226.8050   11.0320 C   0  0  0  0  0  0  0  0  0  0  0  0
   -7.2150  229.3580   14.8740 N   0  0  0  0  0  0  0  0  0  0  0  0
   -8.2180  230.2550   15.4390 C   0  0  2  0  0  0  0  0  0  0  0  0
   -8.0300  231.7090   15.0100 C   0  0  0  0  0  0  0  0  0  0  0  0
   -8.8150  232.5770   15.3890 O   0  0  0  0  0  0  0  0  0  0  0  0
   -8.2050  230.1650   16.9670 C   0  0  0  0  0  0  0  0  0  0  0  0
   -8.4950  228.8490   17.4040 O   0  0  0  0  0  0  0  0  0  0  0  0
   -6.9920  231.9760   14.2230 N   0  0  0  0  0  0  0  0  0  0  0  0
   -6.7540  233.3210   13.7310 C   0  0  0  0  0  0  0  0  0  0  0  0
   -5.3130  233.6140   13.3610 C   0  0  0  0  0  0  0  0  0  0  0  0
   -4.4460  232.7450   13.4470 O   0  0  0  0  0  0  0  0  0  0  0  0
   -5.0610  234.8540   12.9490 N   0  0  0  0  0  0  0  0  0  0  0  0
   -3.7340  235.2780   12.5430 C   0  0  0  0  0  0  0  0  0  0  0  0
   -3.7180  235.7980   11.1170 C   0  0  0  0  0  0  0  0  0  0  0  0
   -4.7590  235.8690   10.4650 O   0  0  0  0  0  0  0  0  0  0  0  0
   -2.5370  236.1680   10.6320 N   0  0  0  0  0  0  0  0  0  0  0  0
   -2.3950  236.6190    9.2530 C   0  0  2  0  0  0  0  0  0  0  0  0
   -2.5900  235.4580    8.2860 C   0  0  0  0  0  0  0  0  0  0  0  0
   -2.6190  234.2990    8.6940 O   0  0  0  0  0  0  0  0  0  0  0  0
   -1.0290  237.2690    9.0280 C   0  0  0  0  0  0  0  0  0  0  0  0
   -0.9390  238.6570    9.6300 C   0  0  0  0  0  0  0  0  0  0  0  0
   -2.0000  239.2740    9.8700 O   0  0  0  0  0  0  0  0  0  0  0  0
    0.1920  239.1320    9.8610 O   0  0  0  0  0  0  0  0  0  0  0  0
   -2.7200  235.7740    7.0030 N   0  0  0  0  0  0  0  0  0  0  0  0
   -2.9800  234.7560    5.9930 C   0  0  2  0  0  0  0  0  0  0  0  0
   -1.7970  233.8120    5.8110 C   0  0  0  0  0  0  0  0  0  0  0  0
   -1.9610  232.6820    5.3560 O   0  0  0  0  0  0  0  0  0  0  0  0
   -3.3370  235.4070    4.6560 C   0  0  0  0  0  0  0  0  0  0  0  0
   -4.8290  235.6200    4.3910 C   0  0  0  0  0  0  0  0  0  0  0  0
   -5.4600  236.5260    5.4410 C   0  0  0  0  0  0  0  0  0  0  0  0
   -5.0490  236.1730    2.9940 C   0  0  0  0  0  0  0  0  0  0  0  0
   -0.6070  234.2750    6.1730 N   0  0  0  0  0  0  0  0  0  0  0  0
    0.5950  233.4630    6.0290 C   0  0  2  0  0  0  0  0  0  0  0  0
    0.6310  232.3200    7.0420 C   0  0  0  0  0  0  0  0  0  0  0  0
    1.4250  231.3900    6.9040 O   0  0  0  0  0  0  0  0  0  0  0  0
    1.8520  234.3270    6.1740 C   0  0  0  0  0  0  0  0  0  0  0  0
    2.0810  235.3090    5.0330 C   0  0  0  0  0  0  0  0  0  0  0  0
    1.1520  236.5080    5.0880 C   0  0  0  0  0  0  0  0  0  0  0  0
    0.6350  236.8120    6.1850 O   0  0  0  0  0  0  0  0  0  0  0  0
    0.9360  237.1440    4.0340 O   0  0  0  0  0  0  0  0  0  0  0  0
   -0.2310  232.3880    8.0530 N   0  0  0  0  0  0  0  0  0  0  0  0
   -0.2410  231.3770    9.1050 C   0  0  2  0  0  0  0  0  0  0  0  0
   -1.5850  230.6510    9.2070 C   0  0  0  0  0  0  0  0  0  0  0  0
   -1.6500  229.5170    9.6830 O   0  0  0  0  0  0  0  0  0  0  0  0
    0.1180  231.9980   10.4820 C   0  0  2  0  0  0  0  0  0  0  0  0
    0.4730  230.9060   11.4910 C   0  0  0  0  0  0  0  0  0  0  0  0
   -1.0100  232.8750   11.0050 C   0  0  0  0  0  0  0  0  0  0  0  0
    1.5480  229.9730   11.0060 C   0  0  0  0  0  0  0  0  0  0  0  0
    2.8710  239.2190    3.2770 N   0  0  0  0  0  0  0  0  0  0  0  0
    3.7010  239.6240    4.4040 C   0  0  2  0  0  0  0  0  0  0  0  0
    4.9990  238.8260    4.4300 C   0  0  0  0  0  0  0  0  0  0  0  0
    4.9830  237.6020    4.5530 O   0  0  0  0  0  0  0  0  0  0  0  0
    2.9480  239.4500    5.7240 C   0  0  0  0  0  0  0  0  0  0  0  0
    1.7160  240.3280    5.8140 C   0  0  0  0  0  0  0  0  0  0  0  0
    1.7970  241.4930    6.2020 O   0  0  0  0  0  0  0  0  0  0  0  0
    0.5630  239.7690    5.4600 N   0  0  0  0  0  0  0  0  0  0  0  0
    6.1210  239.5280    4.3070 N   0  0  0  0  0  0  0  0  0  0  0  0
    7.4310  238.8890    4.2690 C   0  0  2  0  0  0  0  0  0  0  0  0
    7.7980  238.2520    5.6050 C   0  0  0  0  0  0  0  0  0  0  0  0
    7.4520  238.7720    6.6670 O   0  0  0  0  0  0  0  0  0  0  0  0
    8.5000  239.9070    3.8670 C   0  0  0  0  0  0  0  0  0  0  0  0
    8.3980  240.3780    2.4270 C   0  0  0  0  0  0  0  0  0  0  0  0
    9.4050  241.8360    2.1040 S   0  0  0  0  0  0  0  0  0  0  0  0
    8.5330  243.0600    3.0800 C   0  0  0  0  0  0  0  0  0  0  0  0
    8.4980  237.1230    5.5450 N   0  0  0  0  0  0  0  0  0  0  0  0
    8.9650  236.4540    6.7530 C   0  0  2  0  0  0  0  0  0  0  0  0
   10.3310  236.9940    7.1600 C   0  0  0  0  0  0  0  0  0  0  0  0
   10.9200  236.5520    8.1460 O   0  0  0  0  0  0  0  0  0  0  0  0
    9.0240  234.9370    6.5530 C   0  0  0  0  0  0  0  0  0  0  0  0
    9.9720  234.4950    5.4810 C   0  0  0  0  0  0  0  0  0  0  0  0
    9.7040  234.3740    4.1480 C   0  0  0  0  0  0  0  0  0  0  0  0
   11.3410  234.1050    5.6520 C   0  0  0  0  0  0  0  0  0  0  0  0
   10.8200  233.9360    3.4800 N   0  0  0  0  0  0  0  0  0  0  0  0
   11.8380  233.7640    4.3800 C   0  0  0  0  0  0  0  0  0  0  0  0
   12.1930  234.0130    6.7580 C   0  0  0  0  0  0  0  0  0  0  0  0
   13.1500  233.3380    4.1820 C   0  0  0  0  0  0  0  0  0  0  0  0
   13.4930  233.5900    6.5600 C   0  0  0  0  0  0  0  0  0  0  0  0
   13.9590  233.2570    5.2840 C   0  0  0  0  0  0  0  0  0  0  0  0
   10.8290  237.9570    6.3910 N   0  0  0  0  0  0  0  0  0  0  0  0
   12.0670  238.6480    6.7260 C   0  0  2  0  0  0  0  0  0  0  0  0
   11.8220  239.6230    7.8710 C   0  0  0  0  0  0  0  0  0  0  0  0
   12.7580  240.0630    8.5380 O   0  0  0  0  0  0  0  0  0  0  0  0
   12.6270  239.3850    5.5050 C   0  0  0  0  0  0  0  0  0  0  0  0
   13.1340  238.4830    4.3840 C   0  0  0  0  0  0  0  0  0  0  0  0
   12.0240  237.9300    3.5050 C   0  0  0  0  0  0  0  0  0  0  0  0
   10.8940  237.7320    3.9520 O   0  0  0  0  0  0  0  0  0  0  0  0
   12.3450  237.6800    2.2410 N   0  0  0  0  0  0  0  0  0  0  0  0
   10.5540  239.9600    8.0860 N   0  0  0  0  0  0  0  0  0  0  0  0
   10.1600  240.8080    9.1970 C   0  0  0  0  0  0  0  0  0  0  0  0
   10.3000  242.2930    8.9230 C   0  0  0  0  0  0  0  0  0  0  0  0
   10.6150  243.0680    9.8250 O   0  0  0  0  0  0  0  0  0  0  0  0
    0.1390  223.8200   17.3720 N   0  0  0  0  0  0  0  0  0  0  0  0
    0.1090  224.4760   18.6740 C   0  0  2  0  0  0  0  0  0  0  0  0
   -1.1180  223.9960   19.4430 C   0  0  0  0  0  0  0  0  0  0  0  0
   -2.2510  224.2000   19.0050 O   0  0  0  0  0  0  0  0  0  0  0  0
    0.0710  226.0140   18.5560 C   0  0  2  0  0  0  0  0  0  0  0  0
   -1.1260  226.4170   17.8800 O   0  0  0  0  0  0  0  0  0  0  0  0
    1.2820  226.5250   17.7920 C   0  0  0  0  0  0  0  0  0  0  0  0
   -4.1890  223.7320   21.4960 N   0  0  0  0  0  0  0  0  0  0  0  0
   -5.2310  224.6170   21.9980 C   0  0  2  0  0  0  0  0  0  0  0  0
   -5.5010  224.3020   23.4650 C   0  0  0  0  0  0  0  0  0  0  0  0
   -6.0790  223.2640   23.7860 O   0  0  0  0  0  0  0  0  0  0  0  0
   -6.5080  224.4670   21.1690 C   0  0  0  0  0  0  0  0  0  0  0  0
   -7.5200  225.5610   21.4490 C   0  0  0  0  0  0  0  0  0  0  0  0
   -7.1010  226.7010   21.7380 O   0  0  0  0  0  0  0  0  0  0  0  0
   -8.7370  225.2800   21.3760 O   0  0  0  0  0  0  0  0  0  0  0  0
   -4.1930  222.5650   16.5750 N   0  0  0  0  0  0  0  0  0  0  0  0
   -4.3910  223.4060   15.4010 C   0  0  2  0  0  0  0  0  0  0  0  0
   -3.0650  223.6500   14.6850 C   0  0  0  0  0  0  0  0  0  0  0  0
   -2.0370  223.8570   15.3270 O   0  0  0  0  0  0  0  0  0  0  0  0
   -5.0320  224.7380   15.7950 C   0  0  0  0  0  0  0  0  0  0  0  0
   -6.2970  224.6000   16.6240 C   0  0  0  0  0  0  0  0  0  0  0  0
   -6.8620  225.9610   17.0020 C   0  0  0  0  0  0  0  0  0  0  0  0
   -7.9190  225.8540   18.0040 N   0  0  0  0  0  0  0  0  0  0  0  0
   -9.2050  225.6830   17.7160 C   0  0  0  0  0  0  0  0  0  0  0  0
   -9.5990  225.5980   16.4520 N   0  0  0  0  0  0  0  0  0  0  0  0
  -10.0980  225.5960   18.6920 N   0  0  0  0  0  0  0  0  0  0  0  0
   -0.1080  225.5000   12.3760 N   0  0  0  0  0  0  0  0  0  0  0  0
    0.4470  226.8390   12.3820 C   0  0  0  0  0  0  0  0  0  0  0  0
    1.8660  226.9130   12.9090 C   0  0  0  0  0  0  0  0  0  0  0  0
    2.0970  226.8410   14.1160 O   0  0  0  0  0  0  0  0  0  0  0  0
    2.8220  227.0580   11.9970 N   0  0  0  0  0  0  0  0  0  0  0  0
    4.2100  227.2310   12.3740 C   0  0  0  0  0  0  0  0  0  0  0  0
    4.5730  228.7000   12.4560 C   0  0  0  0  0  0  0  0  0  0  0  0
    4.6810  229.2640   13.5450 O   0  0  0  0  0  0  0  0  0  0  0  0
    4.7590  229.3210   11.2970 N   0  0  0  0  0  0  0  0  0  0  0  0
    5.0590  230.7390   11.2320 C   0  0  0  0  0  0  0  0  0  0  0  0
    6.5400  231.0290   11.3360 C   0  0  0  0  0  0  0  0  0  0  0  0
    7.1560  231.5100   10.3870 O   0  0  0  0  0  0  0  0  0  0  0  0
    7.1140  230.7440   12.4990 N   0  0  0  0  0  0  0  0  0  0  0  0
    8.5480  230.8980   12.6940 C   0  0  2  0  0  0  0  0  0  0  0  0
    9.3060  229.8180   11.9360 C   0  0  0  0  0  0  0  0  0  0  0  0
    9.2730  228.6460   12.3120 O   0  0  0  0  0  0  0  0  0  0  0  0
    8.9000  230.8510   14.1810 C   0  0  0  0  0  0  0  0  0  0  0  0
   10.3730  231.0940   14.4370 C   0  0  0  0  0  0  0  0  0  0  0  0
   11.0790  231.6430   13.5930 O   0  0  0  0  0  0  0  0  0  0  0  0
   10.8450  230.6830   15.6090 N   0  0  0  0  0  0  0  0  0  0  0  0
    9.9890  230.2190   10.8690 N   0  0  0  0  0  0  0  0  0  0  0  0
   10.6690  229.2730    9.9930 C   0  0  2  0  0  0  0  0  0  0  0  0
   11.9350  228.7210   10.6510 C   0  0  0  0  0  0  0  0  0  0  0  0
   12.5590  227.7910   10.1380 O   0  0  0  0  0  0  0  0  0  0  0  0
   11.0250  229.9200    8.6380 C   0  0  2  0  0  0  0  0  0  0  0  0
    9.9460  230.9190    8.2220 C   0  0  0  0  0  0  0  0  0  0  0  0
   11.1780  228.8570    7.5600 C   0  0  0  0  0  0  0  0  0  0  0  0
    8.6320  230.2710    7.8330 C   0  0  0  0  0  0  0  0  0  0  0  0
  2  1  1  0
  3  2  1  0
  4  3  2  0
  2  5  1  1
  6  3  1  0
  7  6  1  0
  8  7  1  0
  9  8  2  0
  7 10  1  1
 11 10  1  0
 12 11  1  0
 13 12  1  0
 14 13  1  0
 16 15  1  0
 16 17  1  6
 18 17  2  0
 19 16  1  0
 20 19  1  0
 21 20  1  0
 21 15  1  0
 22 17  1  0
 23 22  1  0
 24 23  1  0
 25 24  2  0
 23 26  1  1
 27 26  1  0
 28 24  1  0
 29 28  1  0
 30 29  1  0
 31 30  2  0
 32 30  1  0
 33 32  1  0
 34 33  1  0
 35 34  2  0
 36 34  1  0
 37 36  1  0
 38 37  1  0
 39 38  2  0
 37 40  1  1
 41 40  1  0
 42 41  2  0
 43 41  1  0
 44 38  1  0
 45 44  1  0
 46 45  1  0
 47 46  2  0
 45 48  1  6
 49 48  1  0
 50 49  1  0
 51 49  1  0
 52 46  1  0
 53 52  1  0
 54 53  1  0
 55 54  2  0
 53 56  1  1
 57 56  1  0
 58 57  1  0
 59 58  2  0
 60 58  1  0
 61 54  1  0
 62 61  1  6
 63 62  1  0
 64 63  2  0
 65 62  1  0
 66 65  1  0
 65 67  1  1
 68 66  1  0
 70 69  1  6
 71 70  1  0
 72 71  2  0
 73 70  1  0
 74 73  1  0
 75 74  2  0
 76 74  1  0
 77 71  1  0
 78 77  1  0
 79 78  1  0
 80 79  2  0
 78 81  1  1
 82 81  1  0
 83 82  1  0
 84 83  1  0
 85 79  1  0
 86 85  1  0
 87 86  1  0
 88 87  2  0
 86 89  1  6
 90 89  1  0
 91 90  2  0
 92 90  1  0
 93 91  1  0
 94 93  1  0
 94 92  2  0
 95 92  1  0
 96 94  1  0
 97 95  2  0
 98 96  2  0
 98 97  1  0
 99 87  1  0
100 99  1  0
101100  1  0
102101  2  0
100103  1  6
104103  1  0
105104  1  0
106105  2  0
107105  1  0
108101  1  0
109108  1  0
110109  1  0
111110  2  0
113112  1  6
114113  1  0
115114  2  0
116113  1  0
117116  1  0
116118  1  6
120119  1  6
121120  1  0
122121  2  0
123120  1  0
124123  1  0
125124  2  0
126124  1  0
128127  1  1
129128  1  0
130129  2  0
131128  1  0
132131  1  0
133132  1  0
134133  1  0
135134  1  0
136135  1  0
137135  2  0
139138  1  0
140139  1  0
141140  2  0
142140  1  0
143142  1  0
144143  1  0
145144  2  0
146144  1  0
147146  1  0
148147  1  0
149148  2  0
150148  1  0
151150  1  0
152151  1  0
153152  2  0
151154  1  1
155154  1  0
156155  2  0
157155  1  0
158152  1  0
159158  1  1
160159  1  0
161160  2  0
162159  1  0
163162  1  0
162164  1  6
165163  1  0
M  END
$$$$
