
     RDKit          3D

 97 91  0  0  0  0  0  0  0  0999 V2000
  485.6580   10.8590  276.5080 N   0  0  0  0  0  0  0  0  0  0  0  0
  486.4020    9.9830  275.6080 C   0  0  2  0  0  0  0  0  0  0  0  0
  487.5450    9.2760  276.3330 C   0  0  0  0  0  0  0  0  0  0  0  0
  488.5230    9.9080  276.7380 O   0  0  0  0  0  0  0  0  0  0  0  0
  486.9380   10.7780  274.4180 C   0  0  0  0  0  0  0  0  0  0  0  0
  487.5230    9.9190  273.3090 C   0  0  0  0  0  0  0  0  0  0  0  0
  486.5090    8.9490  272.7170 C   0  0  0  0  0  0  0  0  0  0  0  0
  485.3460    9.3570  272.4880 O   0  0  0  0  0  0  0  0  0  0  0  0
  486.8780    7.7770  272.4840 O   0  0  0  0  0  0  0  0  0  0  0  0
  490.8760    7.7780  273.2400 N   0  0  0  0  0  0  0  0  0  0  0  0
  491.6900    8.6240  272.3720 C   0  0  2  0  0  0  0  0  0  0  0  0
  492.8340    9.3560  273.0680 C   0  0  0  0  0  0  0  0  0  0  0  0
  493.7430    9.8540  272.3970 O   0  0  0  0  0  0  0  0  0  0  0  0
  490.8050    9.6470  271.6640 C   0  0  0  0  0  0  0  0  0  0  0  0
  489.8790    9.0940  270.5890 C   0  0  0  0  0  0  0  0  0  0  0  0
  489.0590   10.2250  269.9840 C   0  0  0  0  0  0  0  0  0  0  0  0
  490.7080    8.3740  269.5300 C   0  0  0  0  0  0  0  0  0  0  0  0
  489.3690   12.4330  277.9650 N   0  0  0  0  0  0  0  0  0  0  0  0
  489.3800   13.6780  277.2120 C   0  0  2  0  0  0  0  0  0  0  0  0
  487.9700   14.0040  276.7270 C   0  0  0  0  0  0  0  0  0  0  0  0
  487.0590   13.1850  276.8370 O   0  0  0  0  0  0  0  0  0  0  0  0
  490.3590   13.6190  275.9950 C   0  0  2  0  0  0  0  0  0  0  0  0
  489.9930   12.4790  275.0600 C   0  0  0  0  0  0  0  0  0  0  0  0
  491.7950   13.3870  276.4290 C   0  0  0  0  0  0  0  0  0  0  0  0
  490.8910   12.3980  273.8550 C   0  0  0  0  0  0  0  0  0  0  0  0
  487.8110   15.1750  276.1320 N   0  0  0  0  0  0  0  0  0  0  0  0
  486.4930   15.6720  275.7770 C   0  0  2  0  0  0  0  0  0  0  0  0
  485.8500   14.9230  274.6150 C   0  0  0  0  0  0  0  0  0  0  0  0
  486.5020   14.6050  273.6160 O   0  0  0  0  0  0  0  0  0  0  0  0
  486.5790   17.1580  275.4490 C   0  0  0  0  0  0  0  0  0  0  0  0
  487.4900   17.4500  274.2940 C   0  0  0  0  0  0  0  0  0  0  0  0
  487.3600   18.8670  273.8440 C   0  0  0  0  0  0  0  0  0  0  0  0
  488.1540   19.1150  272.5890 C   0  0  0  0  0  0  0  0  0  0  0  0
  488.4220   20.5710  272.4470 N   0  0  0  0  0  0  0  0  0  0  0  0
  484.5590   14.6450  274.7640 N   0  0  0  0  0  0  0  0  0  0  0  0
  483.7500   14.1100  273.6800 C   0  0  2  0  0  0  0  0  0  0  0  0
  483.0940   15.2610  272.9600 C   0  0  0  0  0  0  0  0  0  0  0  0
  482.4340   16.0890  273.5860 O   0  0  0  0  0  0  0  0  0  0  0  0
  482.6860   13.1370  274.2000 C   0  0  0  0  0  0  0  0  0  0  0  0
  481.6900   12.7020  273.1360 C   0  0  0  0  0  0  0  0  0  0  0  0
  480.6380   11.7380  273.6630 C   0  0  0  0  0  0  0  0  0  0  0  0
  481.2100   10.3410  273.8440 C   0  0  0  0  0  0  0  0  0  0  0  0
  480.1590    9.3740  274.2630 N   0  0  0  0  0  0  0  0  0  0  0  0
  483.2920   15.3080  271.6460 N   0  0  0  0  0  0  0  0  0  0  0  0
  482.8590   16.4340  270.8260 C   0  0  2  0  0  0  0  0  0  0  0  0
  483.4250   17.7400  271.3770 C   0  0  0  0  0  0  0  0  0  0  0  0
  484.6270   17.8710  271.5950 O   0  0  0  0  0  0  0  0  0  0  0  0
  481.3320   16.5050  270.7380 C   0  0  0  0  0  0  0  0  0  0  0  0
  480.8480   17.1610  269.4460 C   0  0  0  0  0  0  0  0  0  0  0  0
  481.4770   18.0850  268.9250 O   0  0  0  0  0  0  0  0  0  0  0  0
  479.7160   16.6930  268.9360 N   0  0  0  0  0  0  0  0  0  0  0  0
  482.5510   18.7090  271.6010 N   0  0  0  0  0  0  0  0  0  0  0  0
  482.9690   20.0080  272.1060 C   0  0  2  0  0  0  0  0  0  0  0  0
  482.7930   20.1560  273.6210 C   0  0  0  0  0  0  0  0  0  0  0  0
  482.7960   21.2770  274.1230 O   0  0  0  0  0  0  0  0  0  0  0  0
  482.2130   21.1250  271.3800 C   0  0  0  0  0  0  0  0  0  0  0  0
  482.6360   21.2410  270.0280 O   0  0  0  0  0  0  0  0  0  0  0  0
  496.3920   26.3910  275.1430 N   0  0  0  0  0  0  0  0  0  0  0  0
  495.8390   25.7980  273.9290 C   0  0  2  0  0  0  0  0  0  0  0  0
  495.6340   24.2960  274.1090 C   0  0  0  0  0  0  0  0  0  0  0  0
  494.6390   23.7330  273.6510 O   0  0  0  0  0  0  0  0  0  0  0  0
  496.7400   26.0710  272.7510 C   0  0  0  0  0  0  0  0  0  0  0  0
  496.5950   23.6570  274.7690 N   0  0  0  0  0  0  0  0  0  0  0  0
  496.5490   22.2220  275.0050 C   0  0  2  0  0  0  0  0  0  0  0  0
  495.4920   21.8900  276.0550 C   0  0  0  0  0  0  0  0  0  0  0  0
  494.8220   20.8580  275.9660 O   0  0  0  0  0  0  0  0  0  0  0  0
  497.9260   21.7070  275.4370 C   0  0  0  0  0  0  0  0  0  0  0  0
  498.0490   20.1900  275.4920 C   0  0  0  0  0  0  0  0  0  0  0  0
  499.4600   19.7240  275.8210 C   0  0  0  0  0  0  0  0  0  0  0  0
  499.6950   19.3380  276.9890 O   0  0  0  0  0  0  0  0  0  0  0  0
  500.3300   19.7410  274.9140 O   0  0  0  0  0  0  0  0  0  0  0  0
  492.4090   22.0670  274.1860 N   0  0  0  0  0  0  0  0  0  0  0  0
  492.3680   20.9920  273.2010 C   0  0  2  0  0  0  0  0  0  0  0  0
  491.9480   19.6710  273.8380 C   0  0  0  0  0  0  0  0  0  0  0  0
  491.0890   18.9720  273.3110 O   0  0  0  0  0  0  0  0  0  0  0  0
  493.7230   20.8370  272.4960 C   0  0  0  0  0  0  0  0  0  0  0  0
  493.6840   19.8890  271.3070 C   0  0  0  0  0  0  0  0  0  0  0  0
  492.6370   20.3250  270.3080 C   0  0  0  0  0  0  0  0  0  0  0  0
  492.6420   19.4560  269.0600 C   0  0  0  0  0  0  0  0  0  0  0  0
  491.6870   19.9680  268.0330 N   0  0  0  0  0  0  0  0  0  0  0  0
  492.5410   19.3370  274.9780 N   0  0  0  0  0  0  0  0  0  0  0  0
  492.2520   18.0630  275.6260 C   0  0  2  0  0  0  0  0  0  0  0  0
  490.9340   18.0760  276.3930 C   0  0  0  0  0  0  0  0  0  0  0  0
  490.1770   17.1070  276.3450 O   0  0  0  0  0  0  0  0  0  0  0  0
  493.3970   17.6800  276.5600 C   0  0  0  0  0  0  0  0  0  0  0  0
  494.7350   17.5090  275.8500 C   0  0  0  0  0  0  0  0  0  0  0  0
  495.8280   17.1570  276.8320 C   0  0  0  0  0  0  0  0  0  0  0  0
  494.6100   16.4470  274.7660 C   0  0  0  0  0  0  0  0  0  0  0  0
  487.6980   20.8920  277.1820 N   0  0  0  0  0  0  0  0  0  0  0  0
  487.2130   22.2040  276.7330 C   0  0  2  0  0  0  0  0  0  0  0  0
  487.3240   23.3130  277.7720 C   0  0  0  0  0  0  0  0  0  0  0  0
  487.5120   24.4820  277.4340 O   0  0  0  0  0  0  0  0  0  0  0  0
  485.7640   22.1020  276.2860 C   0  0  0  0  0  0  0  0  0  0  0  0
  485.6060   21.6400  274.8780 C   0  0  0  0  0  0  0  0  0  0  0  0
  485.9620   22.7070  273.8760 C   0  0  0  0  0  0  0  0  0  0  0  0
  486.8210   22.5030  273.0200 O   0  0  0  0  0  0  0  0  0  0  0  0
  485.2960   23.8530  273.9690 N   0  0  0  0  0  0  0  0  0  0  0  0
  2  1  1  1
  3  2  1  0
  4  3  2  0
  5  2  1  0
  6  5  1  0
  7  6  1  0
  8  7  2  0
  9  7  1  0
 11 10  1  1
 12 11  1  0
 13 12  2  0
 14 11  1  0
 15 14  1  0
 16 15  1  0
 17 15  1  0
 19 18  1  6
 20 19  1  0
 21 20  2  0
 22 19  1  0
 23 22  1  0
 22 24  1  1
 25 23  1  0
 26 20  1  0
 27 26  1  0
 28 27  1  0
 29 28  2  0
 27 30  1  6
 31 30  1  0
 32 31  1  0
 33 32  1  0
 34 33  1  0
 35 28  1  0
 36 35  1  0
 37 36  1  0
 38 37  2  0
 36 39  1  1
 40 39  1  0
 41 40  1  0
 42 41  1  0
 43 42  1  0
 44 37  1  0
 45 44  1  0
 46 45  1  0
 47 46  2  0
 45 48  1  1
 49 48  1  0
 50 49  2  0
 51 49  1  0
 52 46  1  0
 53 52  1  0
 54 53  1  0
 55 54  2  0
 53 56  1  6
 57 56  1  0
 59 58  1  0
 60 59  1  0
 61 60  2  0
 59 62  1  6
 63 60  1  0
 64 63  1  0
 65 64  1  0
 66 65  2  0
 64 67  1  1
 68 67  1  0
 69 68  1  0
 70 69  2  0
 71 69  1  0
 73 72  1  1
 74 73  1  0
 75 74  2  0
 76 73  1  0
 77 76  1  0
 78 77  1  0
 79 78  1  0
 80 79  1  0
 81 74  1  0
 82 81  1  0
 83 82  1  0
 84 83  2  0
 82 85  1  1
 86 85  1  0
 87 86  1  0
 88 86  1  0
 90 89  1  1
 91 90  1  0
 92 91  2  0
 93 90  1  0
 94 93  1  0
 95 94  1  0
 96 95  2  0
 97 95  1  0
M  END
$$$$
