
     RDKit          3D

 71 68  0  0  0  0  0  0  0  0999 V2000
  -50.6570  -23.4760  -26.8600 N   0  0  0  0  0  0  0  0  0  0  0  0
  -51.2880  -22.6160  -25.8660 C   0  0  2  0  0  0  0  0  0  0  0  0
  -51.3920  -21.1980  -26.3960 C   0  0  0  0  0  0  0  0  0  0  0  0
  -50.3830  -20.4980  -26.4940 O   0  0  0  0  0  0  0  0  0  0  0  0
  -50.4980  -22.6350  -24.5570 C   0  0  0  0  0  0  0  0  0  0  0  0
  -51.1560  -23.4910  -23.4920 C   0  0  0  0  0  0  0  0  0  0  0  0
  -52.3560  -23.3760  -23.2400 O   0  0  0  0  0  0  0  0  0  0  0  0
  -50.3720  -24.3570  -22.8610 N   0  0  0  0  0  0  0  0  0  0  0  0
  -52.3870  -18.5660  -25.1560 N   0  0  0  0  0  0  0  0  0  0  0  0
  -52.0490  -17.4870  -24.2440 C   0  0  2  0  0  0  0  0  0  0  0  0
  -50.5180  -17.3450  -24.1510 C   0  0  0  0  0  0  0  0  0  0  0  0
  -50.0220  -16.3470  -23.6050 O   0  0  0  0  0  0  0  0  0  0  0  0
  -52.6200  -17.7460  -22.8530 C   0  0  2  0  0  0  0  0  0  0  0  0
  -52.1340  -19.0370  -22.4140 O   0  0  0  0  0  0  0  0  0  0  0  0
  -54.1130  -17.7450  -22.9230 C   0  0  0  0  0  0  0  0  0  0  0  0
  -49.8050  -18.3320  -24.7260 N   0  0  0  0  0  0  0  0  0  0  0  0
  -48.3650  -18.3990  -24.6860 C   0  0  2  0  0  0  0  0  0  0  0  0
  -47.7390  -17.8910  -25.9770 C   0  0  0  0  0  0  0  0  0  0  0  0
  -47.7630  -18.5940  -27.0490 O   0  0  0  0  0  0  0  0  0  0  0  0
  -47.9210  -19.8280  -24.4230 C   0  0  0  0  0  0  0  0  0  0  0  0
  -46.4310  -19.9160  -24.1830 C   0  0  0  0  0  0  0  0  0  0  0  0
  -45.6700  -19.0250  -24.5950 O   0  0  0  0  0  0  0  0  0  0  0  0
  -46.0060  -21.0120  -23.5990 N   0  0  0  0  0  0  0  0  0  0  0  0
  -47.1750  -16.6710  -25.9320 N   0  0  0  0  0  0  0  0  0  0  0  0
  -46.7930  -16.0500  -27.2340 C   0  0  2  0  0  0  0  0  0  0  0  0
  -45.5950  -16.7670  -27.8750 C   0  0  0  0  0  0  0  0  0  0  0  0
  -45.2370  -16.4720  -28.9870 O   0  0  0  0  0  0  0  0  0  0  0  0
  -46.4870  -14.5480  -27.0320 C   0  0  0  0  0  0  0  0  0  0  0  0
  -45.1930  -14.2900  -26.2370 C   0  0  0  0  0  0  0  0  0  0  0  0
  -44.1250  -14.8060  -26.5370 O   0  0  0  0  0  0  0  0  0  0  0  0
  -45.3000  -13.4520  -25.2210 N   0  0  0  0  0  0  0  0  0  0  0  0
  -47.9110  -14.3380  -32.2950 N   0  0  0  0  0  0  0  0  0  0  0  0
  -48.6550  -13.2340  -31.6650 C   0  0  2  0  0  0  0  0  0  0  0  0
  -47.7080  -12.4090  -30.8130 C   0  0  0  0  0  0  0  0  0  0  0  0
  -46.9310  -12.9580  -30.0690 O   0  0  0  0  0  0  0  0  0  0  0  0
  -49.7760  -13.7820  -30.8260 C   0  0  0  0  0  0  0  0  0  0  0  0
  -50.6150  -12.6830  -30.1080 C   0  0  0  0  0  0  0  0  0  0  0  0
  -51.7560  -13.3580  -29.3190 C   0  0  0  0  0  0  0  0  0  0  0  0
  -51.1390  -14.2470  -28.3450 N   0  0  0  0  0  0  0  0  0  0  0  0
  -50.7660  -13.8530  -27.1210 C   0  0  0  0  0  0  0  0  0  0  0  0
  -50.9610  -12.5850  -26.7320 N   0  0  0  0  0  0  0  0  0  0  0  0
  -50.1490  -14.7010  -26.2890 N   0  0  0  0  0  0  0  0  0  0  0  0
  -47.7750  -11.0870  -30.9640 N   0  0  0  0  0  0  0  0  0  0  0  0
  -46.9140  -10.2030  -30.1840 C   0  0  2  0  0  0  0  0  0  0  0  0
  -47.1280  -10.3730  -28.7000 C   0  0  0  0  0  0  0  0  0  0  0  0
  -48.2670  -10.3400  -28.2450 O   0  0  0  0  0  0  0  0  0  0  0  0
  -47.1920   -8.7250  -30.4800 C   0  0  0  0  0  0  0  0  0  0  0  0
  -46.5530   -8.2530  -31.7410 C   0  0  0  0  0  0  0  0  0  0  0  0
  -45.8410   -9.0760  -32.3880 O   0  0  0  0  0  0  0  0  0  0  0  0
  -46.7050   -7.0390  -32.0730 O   0  0  0  0  0  0  0  0  0  0  0  0
  -46.0410  -10.5090  -27.9590 N   0  0  0  0  0  0  0  0  0  0  0  0
  -46.1250  -10.4660  -26.4900 C   0  0  0  0  0  0  0  0  0  0  0  0
  -46.2320   -9.0390  -25.9300 C   0  0  0  0  0  0  0  0  0  0  0  0
  -46.0600   -8.0560  -26.6550 O   0  0  0  0  0  0  0  0  0  0  0  0
  -46.5260   -8.9430  -24.6360 N   0  0  0  0  0  0  0  0  0  0  0  0
  -46.4180   -7.6820  -23.9120 C   0  0  0  0  0  0  0  0  0  0  0  0
  -47.5570   -6.7200  -24.0880 C   0  0  0  0  0  0  0  0  0  0  0  0
  -47.4300   -5.5740  -23.6300 O   0  0  0  0  0  0  0  0  0  0  0  0
  -48.6740   -7.1690  -24.6720 N   0  0  0  0  0  0  0  0  0  0  0  0
  -49.7250   -6.2380  -25.1780 C   0  0  2  0  0  0  0  0  0  0  0  0
  -50.9000   -6.0120  -24.2210 C   0  0  0  0  0  0  0  0  0  0  0  0
  -52.0720   -6.1160  -24.6250 O   0  0  0  0  0  0  0  0  0  0  0  0
  -50.2750   -6.7210  -26.5560 C   0  0  0  0  0  0  0  0  0  0  0  0
  -50.6100   -5.6640  -22.9660 N   0  0  0  0  0  0  0  0  0  0  0  0
  -51.7080   -5.4310  -22.0130 C   0  0  2  0  0  0  0  0  0  0  0  0
  -52.1120   -3.9760  -21.9010 C   0  0  0  0  0  0  0  0  0  0  0  0
  -53.1050   -3.6430  -21.2560 O   0  0  0  0  0  0  0  0  0  0  0  0
  -51.3460   -5.9430  -20.6380 C   0  0  0  0  0  0  0  0  0  0  0  0
  -50.1150   -5.2780  -20.0810 C   0  0  0  0  0  0  0  0  0  0  0  0
  -49.1700   -4.9330  -20.8140 O   0  0  0  0  0  0  0  0  0  0  0  0
  -50.1200   -5.0840  -18.7670 N   0  0  0  0  0  0  0  0  0  0  0  0
  2  1  1  6
  3  2  1  0
  4  3  2  0
  5  2  1  0
  6  5  1  0
  7  6  2  0
  8  6  1  0
 10  9  1  6
 11 10  1  0
 12 11  2  0
 13 10  1  0
 14 13  1  0
 13 15  1  6
 16 11  1  0
 17 16  1  0
 18 17  1  0
 19 18  2  0
 17 20  1  6
 21 20  1  0
 22 21  2  0
 23 21  1  0
 24 18  1  0
 25 24  1  0
 26 25  1  0
 27 26  2  0
 25 28  1  1
 29 28  1  0
 30 29  2  0
 31 29  1  0
 33 32  1  1
 34 33  1  0
 35 34  2  0
 36 33  1  0
 37 36  1  0
 38 37  1  0
 39 38  1  0
 40 39  1  0
 41 40  1  0
 42 40  2  0
 43 34  1  0
 44 43  1  0
 45 44  1  0
 46 45  2  0
 44 47  1  6
 48 47  1  0
 49 48  2  0
 50 48  1  0
 51 45  1  0
 52 51  1  0
 53 52  1  0
 54 53  2  0
 55 53  1  0
 56 55  1  0
 57 56  1  0
 58 57  2  0
 59 57  1  0
 60 59  1  0
 61 60  1  0
 62 61  2  0
 60 63  1  6
 64 61  1  0
 65 64  1  0
 66 65  1  0
 67 66  2  0
 65 68  1  1
 69 68  1  0
 70 69  2  0
 71 69  1  0
M  END
$$$$
