
     RDKit          3D

163158  0  0  0  0  0  0  0  0999 V2000
  -45.2040  -28.3180   11.8020 N   0  0  0  0  0  0  0  0  0  0  0  0
  -44.7680  -27.1020   11.1220 C   0  0  2  0  0  0  0  0  0  0  0  0
  -45.8980  -26.0910   10.9340 C   0  0  0  0  0  0  0  0  0  0  0  0
  -45.6560  -24.9440   10.5610 O   0  0  0  0  0  0  0  0  0  0  0  0
  -44.1350  -27.4670    9.7680 C   0  0  0  0  0  0  0  0  0  0  0  0
  -45.1660  -27.8560    8.7010 C   0  0  0  0  0  0  0  0  0  0  0  0
  -46.1350  -27.1440    8.4430 O   0  0  0  0  0  0  0  0  0  0  0  0
  -44.9500  -29.0110    8.0820 N   0  0  0  0  0  0  0  0  0  0  0  0
  -47.1310  -26.5270   11.1710 N   0  0  0  0  0  0  0  0  0  0  0  0
  -48.2810  -25.6340   11.1070 C   0  0  2  0  0  0  0  0  0  0  0  0
  -48.4760  -24.8560   12.4040 C   0  0  0  0  0  0  0  0  0  0  0  0
  -49.3120  -23.9560   12.4720 O   0  0  0  0  0  0  0  0  0  0  0  0
  -49.5370  -26.4240   10.7750 C   0  0  0  0  0  0  0  0  0  0  0  0
  -47.7010  -25.1940   13.4290 N   0  0  0  0  0  0  0  0  0  0  0  0
  -47.8860  -24.5850   14.7400 C   0  0  2  0  0  0  0  0  0  0  0  0
  -46.9080  -23.4400   14.9320 C   0  0  0  0  0  0  0  0  0  0  0  0
  -45.7290  -23.5500   14.5950 O   0  0  0  0  0  0  0  0  0  0  0  0
  -47.7040  -25.6160   15.8520 C   0  0  0  0  0  0  0  0  0  0  0  0
  -48.7350  -26.7250   15.8570 C   0  0  0  0  0  0  0  0  0  0  0  0
  -50.1270  -26.2000   16.1470 C   0  0  0  0  0  0  0  0  0  0  0  0
  -51.1150  -27.3530   16.2500 C   0  0  0  0  0  0  0  0  0  0  0  0
  -52.4970  -26.9050   16.5810 N   0  0  0  0  0  0  0  0  0  0  0  0
  -47.4140  -22.3380   15.4720 N   0  0  0  0  0  0  0  0  0  0  0  0
  -46.5860  -21.1920   15.8200 C   0  0  2  0  0  0  0  0  0  0  0  0
  -45.6040  -21.5610   16.9280 C   0  0  0  0  0  0  0  0  0  0  0  0
  -45.8810  -22.4300   17.7580 O   0  0  0  0  0  0  0  0  0  0  0  0
  -47.4550  -19.9890   16.2210 C   0  0  2  0  0  0  0  0  0  0  0  0
  -46.6250  -18.7060   16.2060 C   0  0  0  0  0  0  0  0  0  0  0  0
  -48.0960  -20.2190   17.5810 C   0  0  0  0  0  0  0  0  0  0  0  0
  -46.2690  -18.2310   14.8130 C   0  0  0  0  0  0  0  0  0  0  0  0
  -39.4730  -14.1160    6.1050 N   0  0  0  0  0  0  0  0  0  0  0  0
  -40.7690  -14.6930    5.7580 C   0  0  2  0  0  0  0  0  0  0  0  0
  -40.8400  -15.0940    4.2800 C   0  0  0  0  0  0  0  0  0  0  0  0
  -40.3080  -14.4020    3.4090 O   0  0  0  0  0  0  0  0  0  0  0  0
  -41.8990  -13.7180    6.0910 C   0  0  0  0  0  0  0  0  0  0  0  0
  -43.1250  -14.1680    5.5400 O   0  0  0  0  0  0  0  0  0  0  0  0
  -41.5210  -16.2070    4.0130 N   0  0  0  0  0  0  0  0  0  0  0  0
  -41.6920  -16.7360    2.6550 C   0  0  2  0  0  0  0  0  0  0  0  0
  -42.8290  -16.0550    1.8920 C   0  0  0  0  0  0  0  0  0  0  0  0
  -42.9630  -16.2220    0.6780 O   0  0  0  0  0  0  0  0  0  0  0  0
  -41.9310  -18.2490    2.6880 C   0  0  0  0  0  0  0  0  0  0  0  0
  -40.7660  -18.9440    3.0930 O   0  0  0  0  0  0  0  0  0  0  0  0
  -43.6750  -15.3270    2.6050 N   0  0  0  0  0  0  0  0  0  0  0  0
  -44.7680  -14.6430    1.9510 C   0  0  0  0  0  0  0  0  0  0  0  0
  -45.9240  -14.3240    2.8640 C   0  0  0  0  0  0  0  0  0  0  0  0
  -45.9060  -14.6570    4.0510 O   0  0  0  0  0  0  0  0  0  0  0  0
  -46.9260  -13.6600    2.3000 N   0  0  0  0  0  0  0  0  0  0  0  0
  -48.0970  -13.2410    3.0410 C   0  0  0  0  0  0  0  0  0  0  0  0
  -48.2640  -11.7390    3.0020 C   0  0  0  0  0  0  0  0  0  0  0  0
  -47.4970  -11.0400    2.3440 O   0  0  0  0  0  0  0  0  0  0  0  0
  -49.2990  -11.2480    3.6720 N   0  0  0  0  0  0  0  0  0  0  0  0
  -49.5590   -9.8180    3.7490 C   0  0  2  0  0  0  0  0  0  0  0  0
  -48.4070   -9.0930    4.4400 C   0  0  0  0  0  0  0  0  0  0  0  0
  -47.7070   -9.6790    5.2640 O   0  0  0  0  0  0  0  0  0  0  0  0
  -50.8730   -9.5760    4.4850 C   0  0  0  0  0  0  0  0  0  0  0  0
  -52.0760  -10.0090    3.6720 C   0  0  0  0  0  0  0  0  0  0  0  0
  -51.9110  -10.2580    2.4580 O   0  0  0  0  0  0  0  0  0  0  0  0
  -53.1790  -10.1270    4.2480 O   0  0  0  0  0  0  0  0  0  0  0  0
  -48.2510   -7.1230    6.8230 N   0  0  0  0  0  0  0  0  0  0  0  0
  -48.3260   -7.0960    8.2800 C   0  0  2  0  0  0  0  0  0  0  0  0
  -47.5350   -8.2270    8.9260 C   0  0  0  0  0  0  0  0  0  0  0  0
  -47.0270   -8.0720   10.0310 O   0  0  0  0  0  0  0  0  0  0  0  0
  -49.7850   -7.1830    8.7370 C   0  0  0  0  0  0  0  0  0  0  0  0
  -50.6120   -5.9330    8.5010 C   0  0  0  0  0  0  0  0  0  0  0  0
  -51.0240   -5.7680    7.0520 C   0  0  0  0  0  0  0  0  0  0  0  0
  -50.9820   -6.7660    6.3040 O   0  0  0  0  0  0  0  0  0  0  0  0
  -51.3990   -4.6410    6.6630 O   0  0  0  0  0  0  0  0  0  0  0  0
  -47.4400   -9.3650    8.2480 N   0  0  0  0  0  0  0  0  0  0  0  0
  -46.7360  -10.5130    8.8090 C   0  0  2  0  0  0  0  0  0  0  0  0
  -45.3760  -10.7650    8.1700 C   0  0  0  0  0  0  0  0  0  0  0  0
  -44.5310  -11.4340    8.7610 O   0  0  0  0  0  0  0  0  0  0  0  0
  -47.5940  -11.7700    8.7010 C   0  0  2  0  0  0  0  0  0  0  0  0
  -47.7810  -12.1290    7.2310 C   0  0  0  0  0  0  0  0  0  0  0  0
  -48.9430  -11.5430    9.3470 C   0  0  0  0  0  0  0  0  0  0  0  0
  -48.3410  -13.4870    7.0080 C   0  0  0  0  0  0  0  0  0  0  0  0
  -54.4430   -3.9770    6.6610 N   0  0  0  0  0  0  0  0  0  0  0  0
  -55.3100   -5.1030    6.9310 C   0  0  2  0  0  0  0  0  0  0  0  0
  -55.4860   -5.2850    8.4290 C   0  0  0  0  0  0  0  0  0  0  0  0
  -54.5150   -5.4600    9.1620 O   0  0  0  0  0  0  0  0  0  0  0  0
  -54.7050   -6.3350    6.2800 C   0  0  0  0  0  0  0  0  0  0  0  0
  -54.5180   -6.1470    4.7870 C   0  0  0  0  0  0  0  0  0  0  0  0
  -55.4550   -5.7930    4.0720 O   0  0  0  0  0  0  0  0  0  0  0  0
  -53.2870   -6.3190    4.3210 N   0  0  0  0  0  0  0  0  0  0  0  0
  -56.7350   -5.2750    8.8750 N   0  0  0  0  0  0  0  0  0  0  0  0
  -57.0260   -5.3950   10.2920 C   0  0  2  0  0  0  0  0  0  0  0  0
  -56.6490   -6.7490   10.8420 C   0  0  0  0  0  0  0  0  0  0  0  0
  -56.8050   -7.7690   10.1770 O   0  0  0  0  0  0  0  0  0  0  0  0
  -58.5030   -5.1320   10.5350 C   0  0  0  0  0  0  0  0  0  0  0  0
  -58.9010   -3.7080   10.2520 C   0  0  0  0  0  0  0  0  0  0  0  0
  -60.6620   -3.5060   10.5080 S   0  0  0  0  0  0  0  0  0  0  0  0
  -61.2620   -4.3050    9.0230 C   0  0  0  0  0  0  0  0  0  0  0  0
  -56.1640   -6.7450   12.0750 N   0  0  0  0  0  0  0  0  0  0  0  0
  -55.8950   -7.9750   12.7990 C   0  0  2  0  0  0  0  0  0  0  0  0
  -57.1260   -8.4710   13.5370 C   0  0  0  0  0  0  0  0  0  0  0  0
  -57.2630   -9.6690   13.7810 O   0  0  0  0  0  0  0  0  0  0  0  0
  -54.7470   -7.7760   13.7820 C   0  0  0  0  0  0  0  0  0  0  0  0
  -55.0330   -6.7430   14.8150 C   0  0  0  0  0  0  0  0  0  0  0  0
  -54.7420   -5.4160   14.7400 C   0  0  0  0  0  0  0  0  0  0  0  0
  -55.6700   -6.9450   16.0840 C   0  0  0  0  0  0  0  0  0  0  0  0
  -55.1510   -4.7770   15.8840 N   0  0  0  0  0  0  0  0  0  0  0  0
  -55.7240   -5.6940   16.7250 C   0  0  0  0  0  0  0  0  0  0  0  0
  -56.1940   -8.0610   16.7390 C   0  0  0  0  0  0  0  0  0  0  0  0
  -56.2850   -5.5270   17.9910 C   0  0  0  0  0  0  0  0  0  0  0  0
  -56.7490   -7.8940   17.9960 C   0  0  0  0  0  0  0  0  0  0  0  0
  -56.7910   -6.6370   18.6080 C   0  0  0  0  0  0  0  0  0  0  0  0
  -60.0700   -8.7140   12.5790 N   0  0  0  0  0  0  0  0  0  0  0  0
  -61.2010   -8.9960   11.7070 C   0  0  2  0  0  0  0  0  0  0  0  0
  -60.6660   -9.1020   10.2950 C   0  0  0  0  0  0  0  0  0  0  0  0
  -59.6770   -8.4520    9.9560 O   0  0  0  0  0  0  0  0  0  0  0  0
  -62.2820   -7.9100   11.7990 C   0  0  0  0  0  0  0  0  0  0  0  0
  -63.2210   -8.0690   12.9890 C   0  0  0  0  0  0  0  0  0  0  0  0
  -64.0770   -6.8350   13.2420 C   0  0  0  0  0  0  0  0  0  0  0  0
  -65.2350   -6.8000   12.3540 N   0  0  0  0  0  0  0  0  0  0  0  0
  -66.4870   -6.9950   12.7550 C   0  0  0  0  0  0  0  0  0  0  0  0
  -66.7400   -7.2600   14.0300 N   0  0  0  0  0  0  0  0  0  0  0  0
  -67.4820   -6.9550   11.8790 N   0  0  0  0  0  0  0  0  0  0  0  0
  -61.3000   -9.9330    9.4750 N   0  0  0  0  0  0  0  0  0  0  0  0
  -60.9940   -9.9320    8.0560 C   0  0  2  0  0  0  0  0  0  0  0  0
  -61.4980   -8.6140    7.5140 C   0  0  0  0  0  0  0  0  0  0  0  0
  -62.6230   -8.2140    7.8030 O   0  0  0  0  0  0  0  0  0  0  0  0
  -61.6430  -11.1060    7.3510 C   0  0  0  0  0  0  0  0  0  0  0  0
  -42.0640  -19.7300   12.6610 N   0  0  0  0  0  0  0  0  0  0  0  0
  -42.5500  -20.9620   12.0670 C   0  0  2  0  0  0  0  0  0  0  0  0
  -41.3700  -21.7530   11.5360 C   0  0  0  0  0  0  0  0  0  0  0  0
  -40.2980  -21.1940   11.3090 O   0  0  0  0  0  0  0  0  0  0  0  0
  -43.5520  -20.6940   10.9340 C   0  0  2  0  0  0  0  0  0  0  0  0
  -43.9700  -21.9380   10.3620 O   0  0  0  0  0  0  0  0  0  0  0  0
  -42.9170  -19.8360    9.8530 C   0  0  0  0  0  0  0  0  0  0  0  0
  -46.5190  -14.9880   12.8830 N   0  0  0  0  0  0  0  0  0  0  0  0
  -47.5000  -14.3230   13.7170 C   0  0  0  0  0  0  0  0  0  0  0  0
  -48.7110  -13.8730   12.9300 C   0  0  0  0  0  0  0  0  0  0  0  0
  -48.9750  -14.3840   11.8430 O   0  0  0  0  0  0  0  0  0  0  0  0
  -49.4500  -12.9160   13.4780 N   0  0  0  0  0  0  0  0  0  0  0  0
  -50.6540  -12.4310   12.8320 C   0  0  0  0  0  0  0  0  0  0  0  0
  -51.8780  -12.6580   13.6940 C   0  0  0  0  0  0  0  0  0  0  0  0
  -52.8070  -11.8530   13.7000 O   0  0  0  0  0  0  0  0  0  0  0  0
  -51.8790  -13.7660   14.4250 N   0  0  0  0  0  0  0  0  0  0  0  0
  -52.9380  -14.0310   15.3850 C   0  0  2  0  0  0  0  0  0  0  0  0
  -52.4880  -13.5100   16.7420 C   0  0  0  0  0  0  0  0  0  0  0  0
  -51.6240  -14.0970   17.3960 O   0  0  0  0  0  0  0  0  0  0  0  0
  -53.2460  -15.5250   15.4450 C   0  0  0  0  0  0  0  0  0  0  0  0
  -54.4210  -15.8540   16.3470 C   0  0  0  0  0  0  0  0  0  0  0  0
  -54.8860  -14.9840   17.1110 O   0  0  0  0  0  0  0  0  0  0  0  0
  -54.8780  -17.0100   16.2920 O   0  0  0  0  0  0  0  0  0  0  0  0
  -53.0860  -12.4010   17.1570 N   0  0  0  0  0  0  0  0  0  0  0  0
  -52.6530  -11.6940   18.3550 C   0  0  2  0  0  0  0  0  0  0  0  0
  -52.9120  -12.4730   19.6410 C   0  0  0  0  0  0  0  0  0  0  0  0
  -52.3960  -12.1130   20.6980 O   0  0  0  0  0  0  0  0  0  0  0  0
  -53.3350  -10.3320   18.4200 C   0  0  0  0  0  0  0  0  0  0  0  0
  -52.9950   -9.4660   17.2250 C   0  0  0  0  0  0  0  0  0  0  0  0
  -51.2160   -9.3290   16.9770 S   0  0  0  0  0  0  0  0  0  0  0  0
  -51.1520   -8.9790   15.2220 C   0  0  0  0  0  0  0  0  0  0  0  0
  -53.7070  -13.5360   19.5540 N   0  0  0  0  0  0  0  0  0  0  0  0
  -53.9160  -14.4170   20.6990 C   0  0  2  0  0  0  0  0  0  0  0  0
  -52.6060  -15.0300   21.1670 C   0  0  0  0  0  0  0  0  0  0  0  0
  -52.4070  -15.2600   22.3600 O   0  0  0  0  0  0  0  0  0  0  0  0
  -54.9290  -15.5200   20.3850 C   0  0  0  0  0  0  0  0  0  0  0  0
  -56.3480  -15.0110   20.2050 C   0  0  0  0  0  0  0  0  0  0  0  0
  -57.2880  -16.0970   19.7110 C   0  0  0  0  0  0  0  0  0  0  0  0
  -56.8050  -16.7860   18.5200 N   0  0  0  0  0  0  0  0  0  0  0  0
  -57.5570  -17.0380   17.4540 C   0  0  0  0  0  0  0  0  0  0  0  0
  -58.8250  -16.6490   17.4290 N   0  0  0  0  0  0  0  0  0  0  0  0
  -57.0390  -17.6630   16.4060 N   0  0  0  0  0  0  0  0  0  0  0  0
  2  1  1  6
  3  2  1  0
  4  3  2  0
  5  2  1  0
  6  5  1  0
  7  6  2  0
  8  6  1  0
  9  3  1  0
 10  9  1  0
 11 10  1  0
 12 11  2  0
 10 13  1  1
 14 11  1  0
 15 14  1  0
 16 15  1  0
 17 16  2  0
 15 18  1  1
 19 18  1  0
 20 19  1  0
 21 20  1  0
 22 21  1  0
 23 16  1  0
 24 23  1  1
 25 24  1  0
 26 25  2  0
 27 24  1  0
 28 27  1  0
 27 29  1  1
 30 28  1  0
 32 31  1  6
 33 32  1  0
 34 33  2  0
 35 32  1  0
 36 35  1  0
 37 33  1  0
 38 37  1  0
 39 38  1  0
 40 39  2  0
 38 41  1  1
 42 41  1  0
 43 39  1  0
 44 43  1  0
 45 44  1  0
 46 45  2  0
 47 45  1  0
 48 47  1  0
 49 48  1  0
 50 49  2  0
 51 49  1  0
 52 51  1  0
 53 52  1  0
 54 53  2  0
 52 55  1  1
 56 55  1  0
 57 56  2  0
 58 56  1  0
 60 59  1  6
 61 60  1  0
 62 61  2  0
 63 60  1  0
 64 63  1  0
 65 64  1  0
 66 65  2  0
 67 65  1  0
 68 61  1  0
 69 68  1  6
 70 69  1  0
 71 70  2  0
 72 69  1  0
 73 72  1  0
 72 74  1  6
 75 73  1  0
 77 76  1  1
 78 77  1  0
 79 78  2  0
 80 77  1  0
 81 80  1  0
 82 81  2  0
 83 81  1  0
 84 78  1  0
 85 84  1  0
 86 85  1  0
 87 86  2  0
 85 88  1  6
 89 88  1  0
 90 89  1  0
 91 90  1  0
 92 86  1  0
 93 92  1  0
 94 93  1  0
 95 94  2  0
 93 96  1  1
 97 96  1  0
 98 97  2  0
 99 97  1  0
100 98  1  0
101 99  2  0
101100  1  0
102 99  1  0
103101  1  0
104102  2  0
105104  1  0
105103  2  0
107106  1  1
108107  1  0
109108  2  0
110107  1  0
111110  1  0
112111  1  0
113112  1  0
114113  1  0
115114  1  0
116114  2  0
117108  1  0
118117  1  0
119118  1  0
120119  2  0
118121  1  6
123122  1  6
124123  1  0
125124  2  0
126123  1  0
127126  1  0
126128  1  6
130129  1  0
131130  1  0
132131  2  0
133131  1  0
134133  1  0
135134  1  0
136135  2  0
137135  1  0
138137  1  0
139138  1  0
140139  2  0
138141  1  1
142141  1  0
143142  2  0
144142  1  0
145139  1  0
146145  1  0
147146  1  0
148147  2  0
146149  1  1
150149  1  0
151150  1  0
152151  1  0
153147  1  0
154153  1  0
155154  1  0
156155  2  0
154157  1  6
158157  1  0
159158  1  0
160159  1  0
161160  1  0
162161  1  0
163161  2  0
M  END
$$$$
