
     RDKit          3D

170166  0  0  0  0  0  0  0  0999 V2000
    3.3440    7.9790   90.7070 N   0  0  0  0  0  0  0  0  0  0  0  0
    4.2880    8.9950   91.1300 C   0  0  2  0  0  0  0  0  0  0  0  0
    3.6660   10.3830   91.0320 C   0  0  0  0  0  0  0  0  0  0  0  0
    3.5220   11.0830   92.0310 O   0  0  0  0  0  0  0  0  0  0  0  0
    5.5640    8.9440   90.2850 C   0  0  0  0  0  0  0  0  0  0  0  0
    6.2750    7.6160   90.3130 C   0  0  0  0  0  0  0  0  0  0  0  0
    7.7170    7.7310   89.8960 C   0  0  0  0  0  0  0  0  0  0  0  0
    8.2030    8.8130   89.5760 O   0  0  0  0  0  0  0  0  0  0  0  0
    8.4200    6.6170   89.9190 N   0  0  0  0  0  0  0  0  0  0  0  0
    4.4140    5.0640  105.9190 N   0  0  0  0  0  0  0  0  0  0  0  0
    3.7150    4.1200  105.0450 C   0  0  2  0  0  0  0  0  0  0  0  0
    2.5240    4.7910  104.3820 C   0  0  0  0  0  0  0  0  0  0  0  0
    1.9510    4.2410  103.4400 O   0  0  0  0  0  0  0  0  0  0  0  0
    3.2490    2.8810  105.8360 C   0  0  0  0  0  0  0  0  0  0  0  0
    0.8390    7.4230  102.0780 N   0  0  0  0  0  0  0  0  0  0  0  0
    1.1570    8.2020  100.9200 C   0  0  2  0  0  0  0  0  0  0  0  0
    0.8540    9.6590  101.1390 C   0  0  0  0  0  0  0  0  0  0  0  0
   -0.1130   10.0090  101.8180 O   0  0  0  0  0  0  0  0  0  0  0  0
    0.3470    7.7060   99.7130 C   0  0  2  0  0  0  0  0  0  0  0  0
    0.6560    6.3290   99.4630 O   0  0  0  0  0  0  0  0  0  0  0  0
    0.6540    8.5380   98.4840 C   0  0  0  0  0  0  0  0  0  0  0  0
   13.9350    5.8310   94.8270 N   0  0  0  0  0  0  0  0  0  0  0  0
   13.1670    4.6680   95.2900 C   0  0  2  0  0  0  0  0  0  0  0  0
   14.1220    3.6200   95.8310 C   0  0  0  0  0  0  0  0  0  0  0  0
   15.1880    3.4740   95.2290 O   0  0  0  0  0  0  0  0  0  0  0  0
   12.4840    4.1710   94.0170 C   0  0  0  0  0  0  0  0  0  0  0  0
   12.2850    5.4360   93.1940 C   0  0  0  0  0  0  0  0  0  0  0  0
   13.5270    6.2700   93.4810 C   0  0  0  0  0  0  0  0  0  0  0  0
   13.7980    2.9240   96.9150 N   0  0  0  0  0  0  0  0  0  0  0  0
   14.7750    2.0130   97.4850 C   0  0  2  0  0  0  0  0  0  0  0  0
   14.9790    0.9160   96.4580 C   0  0  0  0  0  0  0  0  0  0  0  0
   16.0780    0.3870   96.2870 O   0  0  0  0  0  0  0  0  0  0  0  0
   14.2910    1.4410   98.8170 C   0  0  0  0  0  0  0  0  0  0  0  0
   14.0050    2.4830   99.7260 O   0  0  0  0  0  0  0  0  0  0  0  0
   13.8910    0.5950   95.7650 N   0  0  0  0  0  0  0  0  0  0  0  0
   13.8880   -0.4710   94.7860 C   0  0  0  0  0  0  0  0  0  0  0  0
   12.4580   -0.8180   94.4090 C   0  0  0  0  0  0  0  0  0  0  0  0
   11.5240   -0.1200   94.7920 O   0  0  0  0  0  0  0  0  0  0  0  0
   12.3170   -1.8400   93.5740 N   0  0  0  0  0  0  0  0  0  0  0  0
   11.0340   -2.3550   93.1160 C   0  0  0  0  0  0  0  0  0  0  0  0
   10.7590   -2.4500   91.6330 C   0  0  0  0  0  0  0  0  0  0  0  0
   11.6310   -2.1830   90.8070 O   0  0  0  0  0  0  0  0  0  0  0  0
    9.5210   -2.8140   91.2990 N   0  0  0  0  0  0  0  0  0  0  0  0
    9.1200   -2.8980   89.9020 C   0  0  2  0  0  0  0  0  0  0  0  0
    9.0010   -1.5720   89.1770 C   0  0  0  0  0  0  0  0  0  0  0  0
    8.7140   -0.5370   89.7740 O   0  0  0  0  0  0  0  0  0  0  0  0
    7.7720   -3.6210   89.8130 C   0  0  0  0  0  0  0  0  0  0  0  0
    7.8540   -5.0650   90.2480 C   0  0  0  0  0  0  0  0  0  0  0  0
    8.9140   -5.6930   90.0380 O   0  0  0  0  0  0  0  0  0  0  0  0
    6.8560   -5.5750   90.7980 O   0  0  0  0  0  0  0  0  0  0  0  0
    6.7590   -0.8010   87.2650 N   0  0  0  0  0  0  0  0  0  0  0  0
    5.3530   -0.4560   87.3540 C   0  0  2  0  0  0  0  0  0  0  0  0
    4.9730    0.3680   88.5650 C   0  0  0  0  0  0  0  0  0  0  0  0
    4.0040    1.1330   88.5240 O   0  0  0  0  0  0  0  0  0  0  0  0
    4.5440   -1.7640   87.3700 C   0  0  0  0  0  0  0  0  0  0  0  0
    4.5310   -2.5220   86.0450 C   0  0  0  0  0  0  0  0  0  0  0  0
    5.8030   -3.3170   85.7560 C   0  0  0  0  0  0  0  0  0  0  0  0
    6.5710   -3.5930   86.6970 O   0  0  0  0  0  0  0  0  0  0  0  0
    6.0330   -3.6620   84.5770 O   0  0  0  0  0  0  0  0  0  0  0  0
    5.7460    0.2250   89.6350 N   0  0  0  0  0  0  0  0  0  0  0  0
    5.4770    0.9840   90.8420 C   0  0  2  0  0  0  0  0  0  0  0  0
    6.5080    2.0980   91.0790 C   0  0  0  0  0  0  0  0  0  0  0  0
    6.1940    3.1910   91.5560 O   0  0  0  0  0  0  0  0  0  0  0  0
    5.4180   -0.0110   92.0060 C   0  0  2  0  0  0  0  0  0  0  0  0
    6.7800   -0.6810   92.2470 C   0  0  0  0  0  0  0  0  0  0  0  0
    4.3200   -1.0490   91.6640 C   0  0  0  0  0  0  0  0  0  0  0  0
    6.7620   -1.7020   93.3400 C   0  0  0  0  0  0  0  0  0  0  0  0
    7.7440    1.7760   90.7030 N   0  0  0  0  0  0  0  0  0  0  0  0
    8.9310    2.6350   90.8210 C   0  0  2  0  0  0  0  0  0  0  0  0
    9.0860    3.7540   89.7980 C   0  0  0  0  0  0  0  0  0  0  0  0
    9.8430    4.6980   90.0290 O   0  0  0  0  0  0  0  0  0  0  0  0
   10.2320    1.8100   90.7670 C   0  0  2  0  0  0  0  0  0  0  0  0
   10.3230    1.1370   89.5080 O   0  0  0  0  0  0  0  0  0  0  0  0
   10.2840    0.7940   91.8980 C   0  0  0  0  0  0  0  0  0  0  0  0
   -0.2190   -6.4200   86.0870 N   0  0  0  0  0  0  0  0  0  0  0  0
   -1.2250   -5.4450   86.4460 C   0  0  2  0  0  0  0  0  0  0  0  0
   -1.1990   -5.2490   87.9590 C   0  0  0  0  0  0  0  0  0  0  0  0
   -1.2430   -6.1990   88.7440 O   0  0  0  0  0  0  0  0  0  0  0  0
   -2.6270   -5.8040   85.9250 C   0  0  0  0  0  0  0  0  0  0  0  0
   -2.7790   -5.6960   84.4060 C   0  0  0  0  0  0  0  0  0  0  0  0
   -4.3480   -6.3330   83.7810 S   0  0  0  0  0  0  0  0  0  0  0  0
   -4.2170   -8.0950   84.0400 C   0  0  0  0  0  0  0  0  0  0  0  0
   -1.1420   -3.9770   88.3290 N   0  0  0  0  0  0  0  0  0  0  0  0
   -1.0980   -3.5220   89.7060 C   0  0  2  0  0  0  0  0  0  0  0  0
   -2.3540   -3.9420   90.4570 C   0  0  0  0  0  0  0  0  0  0  0  0
   -2.3880   -3.9860   91.6850 O   0  0  0  0  0  0  0  0  0  0  0  0
   -0.9360   -1.9980   89.7120 C   0  0  0  0  0  0  0  0  0  0  0  0
   -2.0950   -1.3050   89.0000 C   0  0  0  0  0  0  0  0  0  0  0  0
   -2.1050   -0.9130   87.6890 C   0  0  0  0  0  0  0  0  0  0  0  0
   -3.4200   -1.0420   89.4940 C   0  0  0  0  0  0  0  0  0  0  0  0
   -3.3180   -0.3770   87.3560 N   0  0  0  0  0  0  0  0  0  0  0  0
   -4.1470   -0.4450   88.4410 C   0  0  0  0  0  0  0  0  0  0  0  0
   -4.0550   -1.2300   90.7200 C   0  0  0  0  0  0  0  0  0  0  0  0
   -5.4670   -0.0360   88.5830 C   0  0  0  0  0  0  0  0  0  0  0  0
   -5.3670   -0.8160   90.8580 C   0  0  0  0  0  0  0  0  0  0  0  0
   -6.0570   -0.2310   89.7950 C   0  0  0  0  0  0  0  0  0  0  0  0
   -3.3650   -4.3120   89.6870 N   0  0  0  0  0  0  0  0  0  0  0  0
   -4.6000   -4.8760   90.1890 C   0  0  2  0  0  0  0  0  0  0  0  0
   -4.2530   -6.2230   90.8430 C   0  0  0  0  0  0  0  0  0  0  0  0
   -5.0760   -6.8270   91.5280 O   0  0  0  0  0  0  0  0  0  0  0  0
   -5.6020   -4.9890   89.0220 C   0  0  0  0  0  0  0  0  0  0  0  0
   -5.8590   -3.6250   88.3310 C   0  0  0  0  0  0  0  0  0  0  0  0
   -4.8160   -3.3160   87.2570 C   0  0  0  0  0  0  0  0  0  0  0  0
   -3.6230   -3.3690   87.5430 O   0  0  0  0  0  0  0  0  0  0  0  0
   -5.2460   -2.9790   86.0390 N   0  0  0  0  0  0  0  0  0  0  0  0
   -3.0140   -6.6730   90.6300 N   0  0  0  0  0  0  0  0  0  0  0  0
   -2.5080   -7.8790   91.2540 C   0  0  0  0  0  0  0  0  0  0  0  0
   -3.1050   -9.0220   90.4660 C   0  0  0  0  0  0  0  0  0  0  0  0
   -3.0710  -10.1790   90.8910 O   0  0  0  0  0  0  0  0  0  0  0  0
    2.2480   11.8160   94.1730 N   0  0  0  0  0  0  0  0  0  0  0  0
    2.1760   10.7620   95.1870 C   0  0  2  0  0  0  0  0  0  0  0  0
    3.5860   10.5460   95.7920 C   0  0  0  0  0  0  0  0  0  0  0  0
    4.5590   10.3880   95.0480 O   0  0  0  0  0  0  0  0  0  0  0  0
    1.6240    9.4860   94.5400 C   0  0  0  0  0  0  0  0  0  0  0  0
    0.2600    9.7000   93.8980 C   0  0  0  0  0  0  0  0  0  0  0  0
   -0.0710    8.5380   92.9570 C   0  0  0  0  0  0  0  0  0  0  0  0
   -0.7730    9.8460   95.0050 C   0  0  0  0  0  0  0  0  0  0  0  0
    3.6930   10.5500   97.1280 N   0  0  0  0  0  0  0  0  0  0  0  0
    5.0000   10.4230   97.8110 C   0  0  2  0  0  0  0  0  0  0  0  0
    5.1040    9.3470   98.9030 C   0  0  0  0  0  0  0  0  0  0  0  0
    4.1420    9.1480   99.6680 O   0  0  0  0  0  0  0  0  0  0  0  0
    5.3320   11.7770   98.4310 C   0  0  0  0  0  0  0  0  0  0  0  0
    5.5550   12.9310   97.4480 C   0  0  0  0  0  0  0  0  0  0  0  0
    5.7710   14.2420   98.2300 C   0  0  0  0  0  0  0  0  0  0  0  0
    6.7440   12.6380   96.4690 C   0  0  0  0  0  0  0  0  0  0  0  0
    6.2820    8.6990   98.9950 N   0  0  0  0  0  0  0  0  0  0  0  0
    6.6220    7.7990  100.1150 C   0  0  2  0  0  0  0  0  0  0  0  0
    7.7990    8.2550  100.9970 C   0  0  0  0  0  0  0  0  0  0  0  0
    8.8930    8.4850  100.4930 O   0  0  0  0  0  0  0  0  0  0  0  0
    6.9340    6.3930   99.5760 C   0  0  2  0  0  0  0  0  0  0  0  0
    5.8060    5.8970   98.8480 O   0  0  0  0  0  0  0  0  0  0  0  0
    7.2440    5.4410  100.7000 C   0  0  0  0  0  0  0  0  0  0  0  0
   11.2380    9.5660   99.4280 N   0  0  0  0  0  0  0  0  0  0  0  0
   11.4220    8.8250   98.1920 C   0  0  2  0  0  0  0  0  0  0  0  0
   10.1600    8.9240   97.3460 C   0  0  0  0  0  0  0  0  0  0  0  0
    9.0140    8.8640   97.8560 O   0  0  0  0  0  0  0  0  0  0  0  0
   11.8090    7.3710   98.4150 C   0  0  0  0  0  0  0  0  0  0  0  0
   13.0500    7.1850   99.2320 C   0  0  0  0  0  0  0  0  0  0  0  0
   13.3050    5.7130   99.4290 C   0  0  0  0  0  0  0  0  0  0  0  0
   14.3750    5.4550  100.3930 N   0  0  0  0  0  0  0  0  0  0  0  0
   15.6440    5.1950  100.0860 C   0  0  0  0  0  0  0  0  0  0  0  0
   16.0320    5.1330   98.8230 N   0  0  0  0  0  0  0  0  0  0  0  0
   16.5280    4.9760  101.0550 N   0  0  0  0  0  0  0  0  0  0  0  0
   10.3710    9.0810   96.0300 N   0  0  0  0  0  0  0  0  0  0  0  0
    9.2300    9.2860   95.1530 C   0  0  2  0  0  0  0  0  0  0  0  0
    8.4350    8.0230   95.1060 C   0  0  0  0  0  0  0  0  0  0  0  0
    8.9690    6.9340   95.3220 O   0  0  0  0  0  0  0  0  0  0  0  0
    9.8550    9.5330   93.7820 C   0  0  0  0  0  0  0  0  0  0  0  0
   11.2030    8.9360   93.8700 C   0  0  0  0  0  0  0  0  0  0  0  0
   11.6380    9.0140   95.2900 C   0  0  0  0  0  0  0  0  0  0  0  0
    7.1540    8.1830   94.8390 N   0  0  0  0  0  0  0  0  0  0  0  0
    6.2870    7.0640   94.6120 C   0  0  0  0  0  0  0  0  0  0  0  0
    5.2880    7.2540   95.7200 C   0  0  0  0  0  0  0  0  0  0  0  0
    5.7030    7.3540   96.8720 O   0  0  0  0  0  0  0  0  0  0  0  0
    4.0030    7.3160   95.4200 N   0  0  0  0  0  0  0  0  0  0  0  0
    3.0290    7.2470   96.4840 C   0  0  0  0  0  0  0  0  0  0  0  0
    1.9090    6.3190   96.0870 C   0  0  0  0  0  0  0  0  0  0  0  0
    1.7410    6.0040   94.9090 O   0  0  0  0  0  0  0  0  0  0  0  0
    1.1620    5.8980   97.1000 N   0  0  0  0  0  0  0  0  0  0  0  0
    0.0690    4.9500   96.9890 C   0  0  0  0  0  0  0  0  0  0  0  0
   -0.2920    4.3910   95.6280 C   0  0  0  0  0  0  0  0  0  0  0  0
    0.3050    3.4210   95.1600 O   0  0  0  0  0  0  0  0  0  0  0  0
   -1.2550    5.0350   94.9770 N   0  0  0  0  0  0  0  0  0  0  0  0
   -1.8940    4.4680   93.7990 C   0  0  2  0  0  0  0  0  0  0  0  0
   -2.9450    5.4020   93.2060 C   0  0  0  0  0  0  0  0  0  0  0  0
   -3.1650    6.4920   93.7060 O   0  0  0  0  0  0  0  0  0  0  0  0
   -2.4890    3.1050   94.1540 C   0  0  0  0  0  0  0  0  0  0  0  0
   -3.0690    3.0720   95.5580 C   0  0  0  0  0  0  0  0  0  0  0  0
   -3.5030    4.0970   96.0850 O   0  0  0  0  0  0  0  0  0  0  0  0
   -3.0470    1.8990   96.1820 N   0  0  0  0  0  0  0  0  0  0  0  0
  2  1  1  6
  3  2  1  0
  4  3  2  0
  5  2  1  0
  6  5  1  0
  7  6  1  0
  8  7  2  0
  9  7  1  0
 11 10  1  0
 12 11  1  0
 13 12  2  0
 11 14  1  1
 16 15  1  1
 17 16  1  0
 18 17  2  0
 19 16  1  0
 20 19  1  0
 19 21  1  6
 23 22  1  0
 23 24  1  6
 25 24  2  0
 26 23  1  0
 27 26  1  0
 28 27  1  0
 28 22  1  0
 29 24  1  0
 30 29  1  0
 31 30  1  0
 32 31  2  0
 30 33  1  1
 34 33  1  0
 35 31  1  0
 36 35  1  0
 37 36  1  0
 38 37  2  0
 39 37  1  0
 40 39  1  0
 41 40  1  0
 42 41  2  0
 43 41  1  0
 44 43  1  0
 45 44  1  0
 46 45  2  0
 44 47  1  1
 48 47  1  0
 49 48  2  0
 50 48  1  0
 52 51  1  1
 53 52  1  0
 54 53  2  0
 55 52  1  0
 56 55  1  0
 57 56  1  0
 58 57  2  0
 59 57  1  0
 60 53  1  0
 61 60  1  6
 62 61  1  0
 63 62  2  0
 64 61  1  0
 65 64  1  0
 64 66  1  6
 67 65  1  0
 68 62  1  0
 69 68  1  6
 70 69  1  0
 71 70  2  0
 72 69  1  0
 73 72  1  0
 72 74  1  1
 76 75  1  1
 77 76  1  0
 78 77  2  0
 79 76  1  0
 80 79  1  0
 81 80  1  0
 82 81  1  0
 83 77  1  0
 84 83  1  0
 85 84  1  0
 86 85  2  0
 84 87  1  6
 88 87  1  0
 89 88  2  0
 90 88  1  0
 91 89  1  0
 92 91  1  0
 92 90  2  0
 93 90  1  0
 94 92  1  0
 95 93  2  0
 96 94  2  0
 96 95  1  0
 97 85  1  0
 98 97  1  0
 99 98  1  0
100 99  2  0
 98101  1  6
102101  1  0
103102  1  0
104103  2  0
105103  1  0
106 99  1  0
107106  1  0
108107  1  0
109108  2  0
111110  1  6
112111  1  0
113112  2  0
114111  1  0
115114  1  0
116115  1  0
117115  1  0
118112  1  0
119118  1  0
120119  1  0
121120  2  0
119122  1  1
123122  1  0
124123  1  0
125123  1  0
126120  1  0
127126  1  6
128127  1  0
129128  2  0
130127  1  0
131130  1  0
130132  1  1
134133  1  1
135134  1  0
136135  2  0
137134  1  0
138137  1  0
139138  1  0
140139  1  0
141140  1  0
142141  1  0
143141  2  0
144135  1  0
145144  1  0
145146  1  6
147146  2  0
148145  1  0
149148  1  0
150144  1  0
150149  1  0
151146  1  0
152151  1  0
153152  1  0
154153  2  0
155153  1  0
156155  1  0
157156  1  0
158157  2  0
159157  1  0
160159  1  0
161160  1  0
162161  2  0
163161  1  0
164163  1  0
165164  1  0
166165  2  0
164167  1  1
168167  1  0
169168  2  0
170168  1  0
M  END
$$$$
