
     RDKit          3D

152145  0  0  0  0  0  0  0  0999 V2000
   20.3800   40.3630  109.8920 N   0  0  0  0  0  0  0  0  0  0  0  0
   20.7150   39.4270  108.8120 C   0  0  2  0  0  0  0  0  0  0  0  0
   20.9000   40.0820  107.4370 C   0  0  0  0  0  0  0  0  0  0  0  0
   21.9450   39.8960  106.8120 O   0  0  0  0  0  0  0  0  0  0  0  0
   19.6990   38.2540  108.7390 C   0  0  2  0  0  0  0  0  0  0  0  0
   19.9490   37.2640  109.8820 C   0  0  0  0  0  0  0  0  0  0  0  0
   19.7700   37.5570  107.3860 C   0  0  0  0  0  0  0  0  0  0  0  0
   18.6890   36.8280  110.5930 C   0  0  0  0  0  0  0  0  0  0  0  0
   19.8990   40.8430  106.9630 N   0  0  0  0  0  0  0  0  0  0  0  0
   20.0600   41.5380  105.6830 C   0  0  2  0  0  0  0  0  0  0  0  0
   21.1960   42.5500  105.6720 C   0  0  0  0  0  0  0  0  0  0  0  0
   21.8730   42.7000  104.6500 O   0  0  0  0  0  0  0  0  0  0  0  0
   18.7200   42.2460  105.4900 C   0  0  0  0  0  0  0  0  0  0  0  0
   18.1040   42.2940  106.8300 C   0  0  0  0  0  0  0  0  0  0  0  0
   18.5650   41.0690  107.5390 C   0  0  0  0  0  0  0  0  0  0  0  0
   21.4150   43.2400  106.7870 N   0  0  0  0  0  0  0  0  0  0  0  0
   22.4970   44.2240  106.8300 C   0  0  2  0  0  0  0  0  0  0  0  0
   23.8310   43.4840  106.8320 C   0  0  0  0  0  0  0  0  0  0  0  0
   24.7500   43.8650  106.1050 O   0  0  0  0  0  0  0  0  0  0  0  0
   22.3940   45.2070  108.0320 C   0  0  0  0  0  0  0  0  0  0  0  0
   23.4830   46.2430  107.9450 C   0  0  0  0  0  0  0  0  0  0  0  0
   21.0430   45.8960  108.0530 C   0  0  0  0  0  0  0  0  0  0  0  0
   24.2060   40.4830  105.6690 N   0  0  0  0  0  0  0  0  0  0  0  0
   24.2630   39.8990  104.3320 C   0  0  2  0  0  0  0  0  0  0  0  0
   25.0190   40.8420  103.3960 C   0  0  0  0  0  0  0  0  0  0  0  0
   26.0140   40.4260  102.7850 O   0  0  0  0  0  0  0  0  0  0  0  0
   22.8580   39.6040  103.7920 C   0  0  0  0  0  0  0  0  0  0  0  0
   22.8350   38.7610  102.5480 C   0  0  0  0  0  0  0  0  0  0  0  0
   22.4610   39.2580  101.3160 N   0  0  0  0  0  0  0  0  0  0  0  0
   23.1040   37.4460  102.3550 C   0  0  0  0  0  0  0  0  0  0  0  0
   22.5170   38.2900  100.4170 C   0  0  0  0  0  0  0  0  0  0  0  0
   22.9040   37.1800  101.0210 N   0  0  0  0  0  0  0  0  0  0  0  0
   24.5840   42.1030  103.3090 N   0  0  0  0  0  0  0  0  0  0  0  0
   25.1810   43.0410  102.3410 C   0  0  2  0  0  0  0  0  0  0  0  0
   26.6000   43.4400  102.6970 C   0  0  0  0  0  0  0  0  0  0  0  0
   27.4040   43.7220  101.8150 O   0  0  0  0  0  0  0  0  0  0  0  0
   24.3490   44.3090  102.1980 C   0  0  0  0  0  0  0  0  0  0  0  0
   24.8270   45.2520  101.0950 C   0  0  0  0  0  0  0  0  0  0  0  0
   24.8610   44.5970   99.7200 C   0  0  0  0  0  0  0  0  0  0  0  0
   24.0460   43.6800   99.4560 O   0  0  0  0  0  0  0  0  0  0  0  0
   25.7080   45.0070   98.8950 O   0  0  0  0  0  0  0  0  0  0  0  0
   26.8850   43.4800  103.9960 N   0  0  0  0  0  0  0  0  0  0  0  0
   28.2300   43.7390  104.5000 C   0  0  2  0  0  0  0  0  0  0  0  0
   29.2120   42.7680  103.8720 C   0  0  0  0  0  0  0  0  0  0  0  0
   30.2110   43.1920  103.2960 O   0  0  0  0  0  0  0  0  0  0  0  0
   28.2550   43.5900  106.0190 C   0  0  0  0  0  0  0  0  0  0  0  0
   29.6170   43.7950  106.6490 C   0  0  0  0  0  0  0  0  0  0  0  0
   30.2280   45.4720  106.4610 S   0  0  0  0  0  0  0  0  0  0  0  0
   31.6900   45.3910  107.4910 C   0  0  0  0  0  0  0  0  0  0  0  0
   28.5590   40.6480  101.2780 N   0  0  0  0  0  0  0  0  0  0  0  0
   28.4910   40.7740   99.8280 C   0  0  2  0  0  0  0  0  0  0  0  0
   29.4230   41.9040   99.3460 C   0  0  0  0  0  0  0  0  0  0  0  0
   30.0180   41.8140   98.2640 O   0  0  0  0  0  0  0  0  0  0  0  0
   27.0380   40.9580   99.3390 C   0  0  0  0  0  0  0  0  0  0  0  0
   26.3640   39.6340   98.8300 C   0  0  0  0  0  0  0  0  0  0  0  0
   24.8530   39.7640   98.4900 C   0  0  0  0  0  0  0  0  0  0  0  0
   24.1240   40.5190   99.1310 O   0  0  0  0  0  0  0  0  0  0  0  0
   24.3940   39.0050   97.5010 N   0  0  0  0  0  0  0  0  0  0  0  0
   21.5690   33.0470  104.0520 N   0  0  0  0  0  0  0  0  0  0  0  0
   20.5320   32.7090  103.0920 C   0  0  2  0  0  0  0  0  0  0  0  0
   19.7420   31.4630  103.4780 C   0  0  0  0  0  0  0  0  0  0  0  0
   18.5560   31.3680  103.1450 O   0  0  0  0  0  0  0  0  0  0  0  0
   21.1380   32.5760  101.6940 C   0  0  0  0  0  0  0  0  0  0  0  0
   21.6130   33.9260  101.1700 C   0  0  0  0  0  0  0  0  0  0  0  0
   22.4770   33.8430   99.9350 C   0  0  0  0  0  0  0  0  0  0  0  0
   22.4820   32.7870   99.2520 O   0  0  0  0  0  0  0  0  0  0  0  0
   23.1470   34.8620   99.6410 O   0  0  0  0  0  0  0  0  0  0  0  0
   17.1620   32.7970  105.8470 N   0  0  0  0  0  0  0  0  0  0  0  0
   16.1420   33.5970  105.1690 C   0  0  2  0  0  0  0  0  0  0  0  0
   15.1770   32.6870  104.3920 C   0  0  0  0  0  0  0  0  0  0  0  0
   13.9590   32.9240  104.3820 O   0  0  0  0  0  0  0  0  0  0  0  0
   16.7350   34.6530  104.2210 C   0  0  0  0  0  0  0  0  0  0  0  0
   15.6780   35.6170  103.8360 C   0  0  0  0  0  0  0  0  0  0  0  0
   17.8570   35.3980  104.8790 C   0  0  0  0  0  0  0  0  0  0  0  0
   14.9050   35.9250  109.8900 N   0  0  0  0  0  0  0  0  0  0  0  0
   15.5100   37.1620  109.4280 C   0  0  0  0  0  0  0  0  0  0  0  0
   14.7100   37.8380  108.3320 C   0  0  0  0  0  0  0  0  0  0  0  0
   15.0490   38.9600  107.9410 O   0  0  0  0  0  0  0  0  0  0  0  0
   12.7860   40.0890  106.5060 N   0  0  0  0  0  0  0  0  0  0  0  0
   12.3700   41.4310  106.8800 C   0  0  2  0  0  0  0  0  0  0  0  0
   11.0310   41.7680  106.1980 C   0  0  0  0  0  0  0  0  0  0  0  0
   10.8650   41.5850  104.9870 O   0  0  0  0  0  0  0  0  0  0  0  0
   13.4900   42.4620  106.5800 C   0  0  2  0  0  0  0  0  0  0  0  0
   13.8890   42.3620  105.2080 O   0  0  0  0  0  0  0  0  0  0  0  0
   14.7090   42.1830  107.4720 C   0  0  0  0  0  0  0  0  0  0  0  0
    9.0460   44.8380  106.9530 N   0  0  0  0  0  0  0  0  0  0  0  0
    8.6450   46.2750  106.9650 C   0  0  2  0  0  0  0  0  0  0  0  0
    8.7480   46.9450  105.5850 C   0  0  0  0  0  0  0  0  0  0  0  0
    9.6540   46.6380  104.8090 O   0  0  0  0  0  0  0  0  0  0  0  0
    9.4840   47.1590  107.9590 C   0  0  2  0  0  0  0  0  0  0  0  0
   10.8880   46.9200  107.7700 O   0  0  0  0  0  0  0  0  0  0  0  0
    9.0910   46.8940  109.4050 C   0  0  0  0  0  0  0  0  0  0  0  0
    7.8300   47.8840  105.2920 N   0  0  0  0  0  0  0  0  0  0  0  0
    7.9480   48.7460  104.1120 C   0  0  2  0  0  0  0  0  0  0  0  0
    9.4060   49.1630  103.7980 C   0  0  0  0  0  0  0  0  0  0  0  0
    9.8660   49.0080  102.6630 O   0  0  0  0  0  0  0  0  0  0  0  0
    7.1160   49.9780  104.5000 C   0  0  0  0  0  0  0  0  0  0  0  0
    6.1150   49.4810  105.5020 C   0  0  0  0  0  0  0  0  0  0  0  0
    6.6220   48.1870  106.0830 C   0  0  0  0  0  0  0  0  0  0  0  0
   10.1210   49.6620  104.8080 N   0  0  0  0  0  0  0  0  0  0  0  0
   11.5140   50.1320  104.6570 C   0  0  2  0  0  0  0  0  0  0  0  0
   12.4840   49.0080  104.2380 C   0  0  0  0  0  0  0  0  0  0  0  0
   13.4480   49.2570  103.5160 O   0  0  0  0  0  0  0  0  0  0  0  0
   11.9940   50.7790  105.9690 C   0  0  0  0  0  0  0  0  0  0  0  0
   12.8850   52.0070  105.8720 C   0  0  0  0  0  0  0  0  0  0  0  0
   13.0410   52.6360  107.2480 C   0  0  0  0  0  0  0  0  0  0  0  0
   14.2200   51.6400  105.2800 C   0  0  0  0  0  0  0  0  0  0  0  0
   12.2250   47.7860  104.7070 N   0  0  0  0  0  0  0  0  0  0  0  0
   13.0230   46.6040  104.3570 C   0  0  2  0  0  0  0  0  0  0  0  0
   14.4960   46.7230  104.7440 C   0  0  0  0  0  0  0  0  0  0  0  0
   15.3540   46.0730  104.1360 O   0  0  0  0  0  0  0  0  0  0  0  0
   12.9090   46.2840  102.8590 C   0  0  0  0  0  0  0  0  0  0  0  0
   11.5660   45.7370  102.4330 C   0  0  0  0  0  0  0  0  0  0  0  0
   11.1760   44.1790  103.2550 S   0  0  0  0  0  0  0  0  0  0  0  0
   12.4340   43.0580  102.5990 C   0  0  0  0  0  0  0  0  0  0  0  0
   14.7780   47.5340  105.7670 N   0  0  0  0  0  0  0  0  0  0  0  0
   16.1320   47.7060  106.2930 C   0  0  2  0  0  0  0  0  0  0  0  0
   17.0670   48.3900  105.2810 C   0  0  0  0  0  0  0  0  0  0  0  0
   18.2910   48.2680  105.3500 O   0  0  0  0  0  0  0  0  0  0  0  0
   16.6800   46.3440  106.7760 C   0  0  0  0  0  0  0  0  0  0  0  0
   16.4680   46.0760  108.2560 C   0  0  0  0  0  0  0  0  0  0  0  0
   17.5410   46.8070  109.0650 C   0  0  0  0  0  0  0  0  0  0  0  0
   17.0840   47.1740  110.4660 C   0  0  0  0  0  0  0  0  0  0  0  0
   17.6720   48.4670  110.9150 N   0  0  0  0  0  0  0  0  0  0  0  0
   16.4890   49.1390  104.3530 N   0  0  0  0  0  0  0  0  0  0  0  0
   17.2800   49.7680  103.3090 C   0  0  2  0  0  0  0  0  0  0  0  0
   18.1620   50.8830  103.8690 C   0  0  0  0  0  0  0  0  0  0  0  0
   19.3330   50.9700  103.5120 O   0  0  0  0  0  0  0  0  0  0  0  0
   16.3830   50.3030  102.1870 C   0  0  0  0  0  0  0  0  0  0  0  0
   17.0450   50.3130  100.8120 C   0  0  0  0  0  0  0  0  0  0  0  0
   17.2490   48.9110  100.2490 C   0  0  0  0  0  0  0  0  0  0  0  0
   16.3530   48.4460   99.5060 O   0  0  0  0  0  0  0  0  0  0  0  0
   18.2830   48.2690  100.5630 O   0  0  0  0  0  0  0  0  0  0  0  0
   21.2830   49.3620  104.9990 N   0  0  0  0  0  0  0  0  0  0  0  0
   22.1340   48.8350  103.9350 C   0  0  2  0  0  0  0  0  0  0  0  0
   22.8310   49.9920  103.2190 C   0  0  0  0  0  0  0  0  0  0  0  0
   24.0310   49.9460  103.0030 O   0  0  0  0  0  0  0  0  0  0  0  0
   21.3430   47.9590  102.9530 C   0  0  2  0  0  0  0  0  0  0  0  0
   20.8480   46.6950  103.6680 C   0  0  0  0  0  0  0  0  0  0  0  0
   22.2120   47.5880  101.7830 C   0  0  0  0  0  0  0  0  0  0  0  0
   19.8180   45.8950  102.8900 C   0  0  0  0  0  0  0  0  0  0  0  0
   26.5460   50.4810  102.2780 N   0  0  0  0  0  0  0  0  0  0  0  0
   26.9030   50.7800  100.8940 C   0  0  2  0  0  0  0  0  0  0  0  0
   27.7910   52.0010  100.8220 C   0  0  0  0  0  0  0  0  0  0  0  0
   28.8090   51.9890  100.1490 O   0  0  0  0  0  0  0  0  0  0  0  0
   25.6660   51.0220  100.0310 C   0  0  0  0  0  0  0  0  0  0  0  0
   24.8340   49.7850   99.7880 C   0  0  0  0  0  0  0  0  0  0  0  0
   24.5980   49.5930   98.3230 C   0  0  0  0  0  0  0  0  0  0  0  0
   24.2450   48.2080   98.0310 N   0  0  0  0  0  0  0  0  0  0  0  0
   23.0040   47.7420   98.0100 C   0  0  0  0  0  0  0  0  0  0  0  0
   21.9900   48.5610   98.2710 N   0  0  0  0  0  0  0  0  0  0  0  0
   22.7820   46.4590   97.7300 N   0  0  0  0  0  0  0  0  0  0  0  0
  2  1  1  1
  3  2  1  0
  4  3  2  0
  5  2  1  0
  6  5  1  0
  5  7  1  6
  8  6  1  0
  9  3  1  0
 10  9  1  0
 10 11  1  1
 12 11  2  0
 13 10  1  0
 14 13  1  0
 15 14  1  0
 15  9  1  0
 16 11  1  0
 17 16  1  1
 18 17  1  0
 19 18  2  0
 20 17  1  0
 21 20  1  0
 22 20  1  0
 24 23  1  1
 25 24  1  0
 26 25  2  0
 27 24  1  0
 28 27  1  0
 29 28  1  0
 30 28  2  0
 31 29  2  0
 32 30  1  0
 32 31  1  0
 33 25  1  0
 34 33  1  0
 35 34  1  0
 36 35  2  0
 34 37  1  1
 38 37  1  0
 39 38  1  0
 40 39  2  0
 41 39  1  0
 42 35  1  0
 43 42  1  0
 44 43  1  0
 45 44  2  0
 43 46  1  1
 47 46  1  0
 48 47  1  0
 49 48  1  0
 51 50  1  1
 52 51  1  0
 53 52  2  0
 54 51  1  0
 55 54  1  0
 56 55  1  0
 57 56  2  0
 58 56  1  0
 60 59  1  1
 61 60  1  0
 62 61  2  0
 63 60  1  0
 64 63  1  0
 65 64  1  0
 66 65  2  0
 67 65  1  0
 69 68  1  6
 70 69  1  0
 71 70  2  0
 72 69  1  0
 73 72  1  0
 74 72  1  0
 76 75  1  0
 77 76  1  0
 78 77  2  0
 80 79  1  6
 81 80  1  0
 82 81  2  0
 83 80  1  0
 84 83  1  0
 83 85  1  1
 87 86  1  6
 88 87  1  0
 89 88  2  0
 90 87  1  0
 91 90  1  0
 90 92  1  1
 93 88  1  0
 94 93  1  0
 94 95  1  1
 96 95  2  0
 97 94  1  0
 98 97  1  0
 99 93  1  0
 99 98  1  0
100 95  1  0
101100  1  0
102101  1  0
103102  2  0
101104  1  1
105104  1  0
106105  1  0
107105  1  0
108102  1  0
109108  1  0
110109  1  0
111110  2  0
109112  1  6
113112  1  0
114113  1  0
115114  1  0
116110  1  0
117116  1  0
118117  1  0
119118  2  0
117120  1  6
121120  1  0
122121  1  0
123122  1  0
124123  1  0
125118  1  0
126125  1  0
127126  1  0
128127  2  0
126129  1  6
130129  1  0
131130  1  0
132131  2  0
133131  1  0
135134  1  1
136135  1  0
137136  2  0
138135  1  0
139138  1  0
138140  1  6
141139  1  0
143142  1  1
144143  1  0
145144  2  0
146143  1  0
147146  1  0
148147  1  0
149148  1  0
150149  1  0
151150  1  0
152150  2  0
M  END
$$$$
