
     RDKit          3D

130126  0  0  0  0  0  0  0  0999 V2000
   36.1790  -16.9950    5.6150 N   0  0  0  0  0  0  0  0  0  0  0  0
   36.5200  -17.8570    4.4860 C   0  0  2  0  0  0  0  0  0  0  0  0
   37.1810  -17.1330    3.3010 C   0  0  0  0  0  0  0  0  0  0  0  0
   36.7440  -16.0750    2.8530 O   0  0  0  0  0  0  0  0  0  0  0  0
   35.2820  -18.6240    4.0320 C   0  0  0  0  0  0  0  0  0  0  0  0
   35.6950  -19.7440    3.2690 O   0  0  0  0  0  0  0  0  0  0  0  0
   25.9910  -21.9030   -0.0610 N   0  0  0  0  0  0  0  0  0  0  0  0
   25.1760  -22.9510    0.5080 C   0  0  2  0  0  0  0  0  0  0  0  0
   23.8530  -23.0860   -0.2310 C   0  0  0  0  0  0  0  0  0  0  0  0
   23.2930  -22.0940   -0.7030 O   0  0  0  0  0  0  0  0  0  0  0  0
   24.9630  -22.6700    1.9930 C   0  0  0  0  0  0  0  0  0  0  0  0
   24.2630  -24.0550    2.9410 S   0  0  0  0  0  0  0  0  0  0  0  0
   21.3690  -24.0150    1.4410 N   0  0  0  0  0  0  0  0  0  0  0  0
   20.5810  -23.3980    2.5220 C   0  0  2  0  0  0  0  0  0  0  0  0
   20.7250  -21.8470    2.4510 C   0  0  0  0  0  0  0  0  0  0  0  0
   21.4910  -21.3220    1.6450 O   0  0  0  0  0  0  0  0  0  0  0  0
   21.0550  -23.9090    3.8880 C   0  0  0  0  0  0  0  0  0  0  0  0
   22.6890  -23.2590    4.3960 S   0  0  0  0  0  0  0  0  0  0  0  0
   22.2700  -19.4140    4.6760 N   0  0  0  0  0  0  0  0  0  0  0  0
   23.1870  -19.2620    5.8160 C   0  0  2  0  0  0  0  0  0  0  0  0
   22.7520  -18.2060    6.7970 C   0  0  0  0  0  0  0  0  0  0  0  0
   22.8040  -18.4490    7.9980 O   0  0  0  0  0  0  0  0  0  0  0  0
   24.6100  -18.9960    5.3350 C   0  0  0  0  0  0  0  0  0  0  0  0
   25.4020  -20.4340    4.5870 S   0  0  0  0  0  0  0  0  0  0  0  0
   19.8680  -19.5510    8.7100 N   0  0  0  0  0  0  0  0  0  0  0  0
   20.2640  -20.6300    9.6100 C   0  0  2  0  0  0  0  0  0  0  0  0
   21.0860  -20.1200   10.7940 C   0  0  0  0  0  0  0  0  0  0  0  0
   20.7410  -20.3780   11.9510 O   0  0  0  0  0  0  0  0  0  0  0  0
   20.9850  -21.7680    8.8650 C   0  0  0  0  0  0  0  0  0  0  0  0
   20.0870  -22.9760    8.5600 C   0  0  0  0  0  0  0  0  0  0  0  0
   19.8820  -24.1000    9.9900 S   0  0  0  0  0  0  0  0  0  0  0  0
   18.3470  -23.4290   10.7500 C   0  0  0  0  0  0  0  0  0  0  0  0
   22.1560  -19.3620   10.4950 N   0  0  0  0  0  0  0  0  0  0  0  0
   23.1020  -18.8780   11.4790 C   0  0  2  0  0  0  0  0  0  0  0  0
   22.7300  -17.5690   12.1100 C   0  0  0  0  0  0  0  0  0  0  0  0
   23.2190  -17.3000   13.2030 O   0  0  0  0  0  0  0  0  0  0  0  0
   24.5290  -18.8050   10.8980 C   0  0  0  0  0  0  0  0  0  0  0  0
   25.2100  -20.1020   10.3890 C   0  0  0  0  0  0  0  0  0  0  0  0
   26.7150  -19.9100   10.3480 C   0  0  0  0  0  0  0  0  0  0  0  0
   24.8970  -21.3160   11.2600 C   0  0  0  0  0  0  0  0  0  0  0  0
   30.0480  -18.7180    3.6780 N   0  0  0  0  0  0  0  0  0  0  0  0
   30.4970  -19.5830    2.6060 C   0  0  2  0  0  0  0  0  0  0  0  0
   29.4410  -20.6880    2.5430 C   0  0  0  0  0  0  0  0  0  0  0  0
   28.3500  -20.4690    2.0010 O   0  0  0  0  0  0  0  0  0  0  0  0
   31.9110  -20.1290    2.9200 C   0  0  0  0  0  0  0  0  0  0  0  0
   32.5960  -20.8760    1.7620 C   0  0  0  0  0  0  0  0  0  0  0  0
   32.1820  -20.6860    0.5910 O   0  0  0  0  0  0  0  0  0  0  0  0
   33.5230  -21.6650    2.0300 O   0  0  0  0  0  0  0  0  0  0  0  0
   29.7050  -21.8240    3.2000 N   0  0  0  0  0  0  0  0  0  0  0  0
   28.7370  -22.9070    3.2580 C   0  0  2  0  0  0  0  0  0  0  0  0
   28.8130  -23.6340    4.6210 C   0  0  0  0  0  0  0  0  0  0  0  0
   28.9960  -24.8530    4.6490 O   0  0  0  0  0  0  0  0  0  0  0  0
   28.9570  -23.8690    2.0850 C   0  0  0  0  0  0  0  0  0  0  0  0
   28.7150  -22.9180    5.7700 N   0  0  0  0  0  0  0  0  0  0  0  0
   28.4960  -21.4760    5.9570 C   0  0  2  0  0  0  0  0  0  0  0  0
   29.7470  -20.7000    6.3660 C   0  0  0  0  0  0  0  0  0  0  0  0
   29.7020  -19.4800    6.4400 O   0  0  0  0  0  0  0  0  0  0  0  0
   27.3460  -21.2390    6.9320 C   0  0  0  0  0  0  0  0  0  0  0  0
   25.7490  -21.7880    6.2840 S   0  0  0  0  0  0  0  0  0  0  0  0
   30.8450  -21.4080    6.5950 N   0  0  0  0  0  0  0  0  0  0  0  0
   32.1270  -20.7940    6.9150 C   0  0  0  0  0  0  0  0  0  0  0  0
   32.4710  -20.8330    8.3790 C   0  0  0  0  0  0  0  0  0  0  0  0
   31.5930  -21.1000    9.1990 O   0  0  0  0  0  0  0  0  0  0  0  0
   33.7570  -20.5290    8.7270 N   0  0  0  0  0  0  0  0  0  0  0  0
   34.2140  -20.6660   10.1250 C   0  0  2  0  0  0  0  0  0  0  0  0
   33.9680  -19.4650   11.0350 C   0  0  0  0  0  0  0  0  0  0  0  0
   34.5510  -19.3950   12.1290 O   0  0  0  0  0  0  0  0  0  0  0  0
   35.7240  -20.9280    9.9600 C   0  0  0  0  0  0  0  0  0  0  0  0
   35.9660  -21.0930    8.4830 C   0  0  0  0  0  0  0  0  0  0  0  0
   34.9130  -20.2950    7.8380 C   0  0  0  0  0  0  0  0  0  0  0  0
   33.0900  -18.5370   10.6190 N   0  0  0  0  0  0  0  0  0  0  0  0
   32.8100  -17.3620   11.4390 C   0  0  2  0  0  0  0  0  0  0  0  0
   31.4430  -16.7430   11.2290 C   0  0  0  0  0  0  0  0  0  0  0  0
   30.7960  -16.9450   10.1960 O   0  0  0  0  0  0  0  0  0  0  0  0
   33.8700  -16.2900   11.2080 C   0  0  0  0  0  0  0  0  0  0  0  0
   33.8840  -15.9140    9.8430 O   0  0  0  0  0  0  0  0  0  0  0  0
   25.1990  -23.4190   17.1540 N   0  0  0  0  0  0  0  0  0  0  0  0
   25.5410  -23.2250   15.7460 C   0  0  2  0  0  0  0  0  0  0  0  0
   25.3170  -21.7870   15.2390 C   0  0  0  0  0  0  0  0  0  0  0  0
   26.0650  -21.3280   14.3730 O   0  0  0  0  0  0  0  0  0  0  0  0
   24.8080  -24.2600   14.8630 C   0  0  0  0  0  0  0  0  0  0  0  0
   23.3810  -23.9290   14.4920 C   0  0  0  0  0  0  0  0  0  0  0  0
   23.0470  -23.5910   13.1900 C   0  0  0  0  0  0  0  0  0  0  0  0
   22.3760  -23.9290   15.4510 C   0  0  0  0  0  0  0  0  0  0  0  0
   21.7370  -23.2690   12.8450 C   0  0  0  0  0  0  0  0  0  0  0  0
   21.0570  -23.6160   15.1010 C   0  0  0  0  0  0  0  0  0  0  0  0
   20.7500  -23.2860   13.7970 C   0  0  0  0  0  0  0  0  0  0  0  0
   30.4450  -16.6820   16.3720 N   0  0  0  0  0  0  0  0  0  0  0  0
   31.4190  -17.7110   16.0560 C   0  0  2  0  0  0  0  0  0  0  0  0
   32.7090  -17.2110   15.4510 C   0  0  0  0  0  0  0  0  0  0  0  0
   32.6890  -16.3550   14.5710 O   0  0  0  0  0  0  0  0  0  0  0  0
   30.7160  -18.6790   15.0760 C   0  0  0  0  0  0  0  0  0  0  0  0
   31.5130  -19.8960   14.5990 C   0  0  0  0  0  0  0  0  0  0  0  0
   30.9380  -20.4820   13.2710 C   0  0  0  0  0  0  0  0  0  0  0  0
   29.4200  -20.6040   13.1670 C   0  0  0  0  0  0  0  0  0  0  0  0
   28.8670  -21.4360   14.2450 N   0  0  0  0  0  0  0  0  0  0  0  0
   35.7330  -19.7670   14.6010 N   0  0  0  0  0  0  0  0  0  0  0  0
   36.1690  -21.1480   14.7110 C   0  0  2  0  0  0  0  0  0  0  0  0
   37.6360  -21.3600   15.0340 C   0  0  0  0  0  0  0  0  0  0  0  0
   37.9260  -22.1790   15.9150 O   0  0  0  0  0  0  0  0  0  0  0  0
   35.7850  -21.9540   13.4590 C   0  0  0  0  0  0  0  0  0  0  0  0
   36.1300  -23.4260   13.5450 C   0  0  0  0  0  0  0  0  0  0  0  0
   35.2290  -24.3460   14.0720 C   0  0  0  0  0  0  0  0  0  0  0  0
   37.3480  -23.9030   13.0740 C   0  0  0  0  0  0  0  0  0  0  0  0
   35.5340  -25.7080   14.1250 C   0  0  0  0  0  0  0  0  0  0  0  0
   37.6710  -25.2560   13.1390 C   0  0  0  0  0  0  0  0  0  0  0  0
   36.7720  -26.1500   13.6830 C   0  0  0  0  0  0  0  0  0  0  0  0
   37.1290  -27.4700   13.7410 O   0  0  0  0  0  0  0  0  0  0  0  0
   38.5620  -20.6890   14.3160 N   0  0  0  0  0  0  0  0  0  0  0  0
   39.9810  -20.9640   14.5360 C   0  0  2  0  0  0  0  0  0  0  0  0
   40.5230  -20.3990   15.8520 C   0  0  0  0  0  0  0  0  0  0  0  0
   41.6830  -20.6610   16.1750 O   0  0  0  0  0  0  0  0  0  0  0  0
   40.8240  -20.5870   13.3120 C   0  0  0  0  0  0  0  0  0  0  0  0
   40.4910  -21.5500   12.1930 C   0  0  0  0  0  0  0  0  0  0  0  0
   40.8210  -22.9050   12.2910 C   0  0  0  0  0  0  0  0  0  0  0  0
   39.7120  -21.1460   11.1050 C   0  0  0  0  0  0  0  0  0  0  0  0
   40.4610  -23.8120   11.2980 C   0  0  0  0  0  0  0  0  0  0  0  0
   39.3660  -22.0430   10.0900 C   0  0  0  0  0  0  0  0  0  0  0  0
   39.7530  -23.3740   10.1920 C   0  0  0  0  0  0  0  0  0  0  0  0
   39.4140  -24.2890    9.2300 O   0  0  0  0  0  0  0  0  0  0  0  0
   34.1110  -25.2190   17.3770 N   0  0  0  0  0  0  0  0  0  0  0  0
   32.6990  -25.4360   17.0440 C   0  0  2  0  0  0  0  0  0  0  0  0
   31.7020  -24.9680   18.0670 C   0  0  0  0  0  0  0  0  0  0  0  0
   31.8410  -25.2620   19.2480 O   0  0  0  0  0  0  0  0  0  0  0  0
   32.4380  -26.9010   16.7410 C   0  0  0  0  0  0  0  0  0  0  0  0
   31.2520  -27.0310   15.9810 O   0  0  0  0  0  0  0  0  0  0  0  0
   30.6970  -24.2470   17.5730 N   0  0  0  0  0  0  0  0  0  0  0  0
   29.5520  -23.7640   18.3330 C   0  0  0  0  0  0  0  0  0  0  0  0
   29.7780  -22.8960   19.5500 C   0  0  0  0  0  0  0  0  0  0  0  0
   28.8280  -22.6470   20.3070 O   0  0  0  0  0  0  0  0  0  0  0  0
  2  1  1  1
  3  2  1  0
  4  3  2  0
  5  2  1  0
  6  5  1  0
  8  7  1  6
  9  8  1  0
 10  9  2  0
 11  8  1  0
 12 11  1  0
 14 13  1  6
 15 14  1  0
 16 15  2  0
 17 14  1  0
 18 17  1  0
 18 12  1  0
 20 19  1  6
 21 20  1  0
 22 21  2  0
 23 20  1  0
 24 23  1  0
 26 25  1  6
 27 26  1  0
 28 27  2  0
 29 26  1  0
 30 29  1  0
 31 30  1  0
 32 31  1  0
 33 27  1  0
 34 33  1  0
 35 34  1  0
 36 35  2  0
 34 37  1  6
 38 37  1  0
 39 38  1  0
 40 38  1  0
 42 41  1  1
 43 42  1  0
 44 43  2  0
 45 42  1  0
 46 45  1  0
 47 46  2  0
 48 46  1  0
 49 43  1  0
 50 49  1  0
 51 50  1  0
 52 51  2  0
 50 53  1  6
 54 51  1  0
 55 54  1  0
 56 55  1  0
 57 56  2  0
 55 58  1  1
 59 24  1  0
 59 58  1  0
 60 56  1  0
 61 60  1  0
 62 61  1  0
 63 62  2  0
 64 62  1  0
 65 64  1  0
 65 66  1  1
 67 66  2  0
 68 65  1  0
 69 68  1  0
 70 69  1  0
 70 64  1  0
 71 66  1  0
 72 71  1  0
 73 72  1  0
 74 73  2  0
 72 75  1  6
 76 75  1  0
 78 77  1  1
 79 78  1  0
 80 79  2  0
 81 78  1  0
 82 81  1  0
 83 82  2  0
 84 82  1  0
 85 83  1  0
 86 84  2  0
 87 86  1  0
 87 85  2  0
 89 88  1  6
 90 89  1  0
 91 90  2  0
 92 89  1  0
 93 92  1  0
 94 93  1  0
 95 94  1  0
 96 95  1  0
 98 97  1  6
 99 98  1  0
100 99  2  0
101 98  1  0
102101  1  0
103102  2  0
104102  1  0
105103  1  0
106104  2  0
107106  1  0
107105  2  0
108107  1  0
109 99  1  0
110109  1  0
111110  1  0
112111  2  0
110113  1  6
114113  1  0
115114  2  0
116114  1  0
117115  1  0
118116  2  0
119118  1  0
119117  2  0
120119  1  0
122121  1  1
123122  1  0
124123  2  0
125122  1  0
126125  1  0
127123  1  0
128127  1  0
129128  1  0
130129  2  0
M  END
$$$$
