
     RDKit          3D

104103  0  0  0  0  0  0  0  0999 V2000
   -5.9630   15.8510   -7.8990 N   0  0  0  0  0  0  0  0  0  0  0  0
   -7.3280   16.2700   -8.1540 C   0  0  0  0  0  0  0  0  0  0  0  0
   -7.9670   17.0390   -7.0140 C   0  0  0  0  0  0  0  0  0  0  0  0
   -7.3230   17.3410   -6.0100 O   0  0  0  0  0  0  0  0  0  0  0  0
   -9.2510   17.3400   -7.1690 N   0  0  0  0  0  0  0  0  0  0  0  0
  -10.0060   18.0570   -6.1510 C   0  0  2  0  0  0  0  0  0  0  0  0
  -10.6560   17.0720   -5.1930 C   0  0  0  0  0  0  0  0  0  0  0  0
  -11.4010   16.1920   -5.6180 O   0  0  0  0  0  0  0  0  0  0  0  0
  -11.1010   18.9440   -6.7790 C   0  0  2  0  0  0  0  0  0  0  0  0
  -10.5150   19.8370   -7.7320 O   0  0  0  0  0  0  0  0  0  0  0  0
  -11.8270   19.7420   -5.7050 C   0  0  0  0  0  0  0  0  0  0  0  0
  -13.2440   15.5600   -2.3500 N   0  0  0  0  0  0  0  0  0  0  0  0
  -14.6940   15.6680   -2.1480 C   0  0  2  0  0  0  0  0  0  0  0  0
  -15.0780   16.4340   -0.8830 C   0  0  0  0  0  0  0  0  0  0  0  0
  -14.2110   16.9460   -0.1820 O   0  0  0  0  0  0  0  0  0  0  0  0
  -15.1340   14.2080   -2.0440 C   0  0  0  0  0  0  0  0  0  0  0  0
  -13.9490   13.5060   -1.5080 C   0  0  0  0  0  0  0  0  0  0  0  0
  -12.7580   14.1910   -2.1050 C   0  0  0  0  0  0  0  0  0  0  0  0
  -19.8290   14.7440    3.0500 N   0  0  0  0  0  0  0  0  0  0  0  0
  -20.9240   13.7980    2.8540 C   0  0  2  0  0  0  0  0  0  0  0  0
  -20.6560   12.8120    1.7180 C   0  0  0  0  0  0  0  0  0  0  0  0
  -21.1810   11.6990    1.7230 O   0  0  0  0  0  0  0  0  0  0  0  0
  -22.2450   14.5320    2.6160 C   0  0  0  0  0  0  0  0  0  0  0  0
  -22.2220   15.5480    1.4930 C   0  0  0  0  0  0  0  0  0  0  0  0
  -21.8760   16.8690    1.7420 C   0  0  0  0  0  0  0  0  0  0  0  0
  -22.5630   15.1950    0.1910 C   0  0  0  0  0  0  0  0  0  0  0  0
  -21.8590   17.8060    0.7380 C   0  0  0  0  0  0  0  0  0  0  0  0
  -22.5500   16.1280   -0.8270 C   0  0  0  0  0  0  0  0  0  0  0  0
  -22.1970   17.4370   -0.5480 C   0  0  0  0  0  0  0  0  0  0  0  0
  -22.1740   18.3880   -1.5490 O   0  0  0  0  0  0  0  0  0  0  0  0
  -19.8460   13.2180    0.7470 N   0  0  0  0  0  0  0  0  0  0  0  0
  -19.4790   12.3270   -0.3490 C   0  0  2  0  0  0  0  0  0  0  0  0
  -17.9930   11.9810   -0.3300 C   0  0  0  0  0  0  0  0  0  0  0  0
  -17.3430   11.9350   -1.3790 O   0  0  0  0  0  0  0  0  0  0  0  0
  -19.8640   12.9480   -1.7010 C   0  0  0  0  0  0  0  0  0  0  0  0
  -19.3440   14.3720   -1.8700 C   0  0  0  0  0  0  0  0  0  0  0  0
  -18.5840   14.8710   -1.0420 O   0  0  0  0  0  0  0  0  0  0  0  0
  -19.7510   15.0280   -2.9550 N   0  0  0  0  0  0  0  0  0  0  0  0
  -17.4790   11.7230    0.8710 N   0  0  0  0  0  0  0  0  0  0  0  0
  -16.0580   11.4560    1.0970 C   0  0  2  0  0  0  0  0  0  0  0  0
  -15.5210   10.3150    0.2470 C   0  0  0  0  0  0  0  0  0  0  0  0
  -16.2290    9.3590   -0.0440 O   0  0  0  0  0  0  0  0  0  0  0  0
  -15.8120   11.1440    2.5780 C   0  0  0  0  0  0  0  0  0  0  0  0
  -16.6070    9.9710    3.0940 C   0  0  0  0  0  0  0  0  0  0  0  0
  -17.8950   10.1450    3.5800 C   0  0  0  0  0  0  0  0  0  0  0  0
  -16.0690    8.6940    3.0940 C   0  0  0  0  0  0  0  0  0  0  0  0
  -18.6310    9.0620    4.0570 C   0  0  0  0  0  0  0  0  0  0  0  0
  -16.8020    7.6100    3.5660 C   0  0  0  0  0  0  0  0  0  0  0  0
  -18.0830    7.7950    4.0470 C   0  0  0  0  0  0  0  0  0  0  0  0
  -14.2580   10.3600   -0.0490 N   0  0  0  0  0  0  0  0  0  0  0  0
  -13.6530    9.3740   -0.8650 C   0  0  2  0  0  0  0  0  0  0  0  0
  -12.9640    8.3700    0.0120 C   0  0  0  0  0  0  0  0  0  0  0  0
  -12.3090    8.7370    0.9240 O   0  0  0  0  0  0  0  0  0  0  0  0
  -12.6620   10.0270   -1.7850 C   0  0  0  0  0  0  0  0  0  0  0  0
  -12.3970    9.2860   -3.0630 C   0  0  0  0  0  0  0  0  0  0  0  0
  -13.4220    9.6270   -4.1230 C   0  0  0  0  0  0  0  0  0  0  0  0
  -13.0990    8.9200   -5.4340 C   0  0  0  0  0  0  0  0  0  0  0  0
  -13.9690    7.7910   -5.8740 N   0  0  0  0  0  0  0  0  0  0  0  0
  -22.6090    6.0320    3.7940 N   0  0  0  0  0  0  0  0  0  0  0  0
  -22.9260    7.3210    3.1920 C   0  0  2  0  0  0  0  0  0  0  0  0
  -24.3700    7.7080    3.4810 C   0  0  0  0  0  0  0  0  0  0  0  0
  -25.2370    6.8480    3.6120 O   0  0  0  0  0  0  0  0  0  0  0  0
  -22.6880    7.2850    1.6830 C   0  0  0  0  0  0  0  0  0  0  0  0
  -21.2360    7.1750    1.2920 C   0  0  0  0  0  0  0  0  0  0  0  0
  -20.4590    8.3120    1.1150 C   0  0  0  0  0  0  0  0  0  0  0  0
  -20.6410    5.9360    1.1010 C   0  0  0  0  0  0  0  0  0  0  0  0
  -19.1340    8.2200    0.7540 C   0  0  0  0  0  0  0  0  0  0  0  0
  -19.3150    5.8320    0.7440 C   0  0  0  0  0  0  0  0  0  0  0  0
  -18.5660    6.9780    0.5700 C   0  0  0  0  0  0  0  0  0  0  0  0
  -17.2410    6.8800    0.2140 O   0  0  0  0  0  0  0  0  0  0  0  0
  -26.9690   11.4880   -0.5060 N   0  0  0  0  0  0  0  0  0  0  0  0
  -25.8620   11.7560   -1.4320 C   0  0  2  0  0  0  0  0  0  0  0  0
  -26.3160   11.6220   -2.8810 C   0  0  0  0  0  0  0  0  0  0  0  0
  -25.6700   12.1400   -3.7860 O   0  0  0  0  0  0  0  0  0  0  0  0
  -24.6510   10.8280   -1.2180 C   0  0  0  0  0  0  0  0  0  0  0  0
  -24.0610   11.0420    0.1550 C   0  0  0  0  0  0  0  0  0  0  0  0
  -25.0350    9.3770   -1.4390 C   0  0  0  0  0  0  0  0  0  0  0  0
  -28.1210   15.3270   -3.4410 N   0  0  0  0  0  0  0  0  0  0  0  0
  -27.3400   16.5410   -3.2140 C   0  0  2  0  0  0  0  0  0  0  0  0
  -26.2080   16.6170   -4.2370 C   0  0  0  0  0  0  0  0  0  0  0  0
  -25.5620   15.6130   -4.5170 O   0  0  0  0  0  0  0  0  0  0  0  0
  -26.7640   16.5730   -1.7660 C   0  0  0  0  0  0  0  0  0  0  0  0
  -25.8780   17.7850   -1.5320 C   0  0  0  0  0  0  0  0  0  0  0  0
  -27.8830   16.5460   -0.7520 C   0  0  0  0  0  0  0  0  0  0  0  0
  -25.9730   17.8020   -4.8190 N   0  0  0  0  0  0  0  0  0  0  0  0
  -24.8760   17.9130   -5.7920 C   0  0  2  0  0  0  0  0  0  0  0  0
  -23.5230   17.6460   -5.1460 C   0  0  0  0  0  0  0  0  0  0  0  0
  -23.4560   17.6300   -3.9270 O   0  0  0  0  0  0  0  0  0  0  0  0
  -24.9660   19.3640   -6.2810 C   0  0  0  0  0  0  0  0  0  0  0  0
  -26.2540   19.8980   -5.7720 C   0  0  0  0  0  0  0  0  0  0  0  0
  -26.7190   19.0570   -4.6460 C   0  0  0  0  0  0  0  0  0  0  0  0
  -22.4670   17.4690   -5.9360 N   0  0  0  0  0  0  0  0  0  0  0  0
  -21.1420   17.2110   -5.3810 C   0  0  2  0  0  0  0  0  0  0  0  0
  -20.6560   18.4170   -4.5870 C   0  0  0  0  0  0  0  0  0  0  0  0
  -19.6770   18.3420   -3.8410 O   0  0  0  0  0  0  0  0  0  0  0  0
  -20.1450   16.8530   -6.4880 C   0  0  0  0  0  0  0  0  0  0  0  0
  -19.7700   17.9770   -7.2520 O   0  0  0  0  0  0  0  0  0  0  0  0
  -21.3660   19.5250   -4.7620 N   0  0  0  0  0  0  0  0  0  0  0  0
  -21.1140   20.7640   -4.0530 C   0  0  2  0  0  0  0  0  0  0  0  0
  -22.4380   21.5030   -3.9250 C   0  0  0  0  0  0  0  0  0  0  0  0
  -23.1940   21.5920   -4.8870 O   0  0  0  0  0  0  0  0  0  0  0  0
  -20.0830   21.6380   -4.7890 C   0  0  2  0  0  0  0  0  0  0  0  0
  -18.7720   21.1000   -4.5890 O   0  0  0  0  0  0  0  0  0  0  0  0
  -20.1250   23.0780   -4.2880 C   0  0  0  0  0  0  0  0  0  0  0  0
  2  1  1  0
  3  2  1  0
  4  3  2  0
  5  3  1  0
  6  5  1  6
  7  6  1  0
  8  7  2  0
  9  6  1  0
 10  9  1  0
  9 11  1  1
 13 12  1  0
 13 14  1  1
 15 14  2  0
 16 13  1  0
 17 16  1  0
 18 17  1  0
 18 12  1  0
 20 19  1  6
 21 20  1  0
 22 21  2  0
 23 20  1  0
 24 23  1  0
 25 24  2  0
 26 24  1  0
 27 25  1  0
 28 26  2  0
 29 28  1  0
 29 27  2  0
 30 29  1  0
 31 21  1  0
 32 31  1  0
 33 32  1  0
 34 33  2  0
 32 35  1  6
 36 35  1  0
 37 36  2  0
 38 36  1  0
 39 33  1  0
 40 39  1  0
 41 40  1  0
 42 41  2  0
 40 43  1  1
 44 43  1  0
 45 44  2  0
 46 44  1  0
 47 45  1  0
 48 46  2  0
 49 48  1  0
 49 47  2  0
 50 41  1  0
 51 50  1  0
 52 51  1  0
 53 52  2  0
 51 54  1  6
 55 54  1  0
 56 55  1  0
 57 56  1  0
 58 57  1  0
 60 59  1  6
 61 60  1  0
 62 61  2  0
 63 60  1  0
 64 63  1  0
 65 64  2  0
 66 64  1  0
 67 65  1  0
 68 66  2  0
 69 68  1  0
 69 67  2  0
 70 69  1  0
 72 71  1  1
 73 72  1  0
 74 73  2  0
 75 72  1  0
 76 75  1  0
 77 75  1  0
 79 78  1  6
 80 79  1  0
 81 80  2  0
 82 79  1  0
 83 82  1  0
 84 82  1  0
 85 80  1  0
 86 85  1  0
 86 87  1  1
 88 87  2  0
 89 86  1  0
 90 89  1  0
 91 90  1  0
 91 85  1  0
 92 87  1  0
 93 92  1  0
 94 93  1  0
 95 94  2  0
 93 96  1  6
 97 96  1  0
 98 94  1  0
 99 98  1  6
100 99  1  0
101100  2  0
102 99  1  0
103102  1  0
102104  1  1
M  END
$$$$
