
     RDKit          3D

106105  0  0  0  0  0  0  0  0999 V2000
    0.9410   -6.4930   19.9140 N   0  0  0  0  0  0  0  0  0  0  0  0
    0.6790   -5.1140   19.5770 C   0  0  0  0  0  0  0  0  0  0  0  0
    1.0220   -4.1750   20.6840 C   0  0  0  0  0  0  0  0  0  0  0  0
    1.4700   -4.6160   21.7090 O   0  0  0  0  0  0  0  0  0  0  0  0
    0.8030   -2.8860   20.4700 N   0  0  0  0  0  0  0  0  0  0  0  0
    1.1670   -1.8770   21.4350 C   0  0  2  0  0  0  0  0  0  0  0  0
   -0.0080   -1.4100   22.2440 C   0  0  0  0  0  0  0  0  0  0  0  0
   -1.0340   -1.0380   21.7190 O   0  0  0  0  0  0  0  0  0  0  0  0
    1.7500   -0.6810   20.7310 C   0  0  2  0  0  0  0  0  0  0  0  0
    2.8780   -1.1070   19.9880 O   0  0  0  0  0  0  0  0  0  0  0  0
    2.1870    0.3240   21.7120 C   0  0  0  0  0  0  0  0  0  0  0  0
   -2.6420    0.2180   24.9720 N   0  0  0  0  0  0  0  0  0  0  0  0
   -3.3050    1.4960   25.1070 C   0  0  2  0  0  0  0  0  0  0  0  0
   -3.0370    2.1270   26.4410 C   0  0  0  0  0  0  0  0  0  0  0  0
   -2.6280    1.4510   27.3250 O   0  0  0  0  0  0  0  0  0  0  0  0
   -4.7560    1.1190   24.9790 C   0  0  0  0  0  0  0  0  0  0  0  0
   -4.8350   -0.2690   25.4570 C   0  0  0  0  0  0  0  0  0  0  0  0
   -3.4890   -0.8810   25.4210 C   0  0  0  0  0  0  0  0  0  0  0  0
   -3.2850    3.4070   26.5730 N   0  0  0  0  0  0  0  0  0  0  0  0
   -3.0490    4.0720   27.8150 C   0  0  2  0  0  0  0  0  0  0  0  0
   -4.2120    3.8700   28.7090 C   0  0  0  0  0  0  0  0  0  0  0  0
   -5.1330    3.2030   28.3500 O   0  0  0  0  0  0  0  0  0  0  0  0
   -2.7630    5.5180   27.5850 C   0  0  0  0  0  0  0  0  0  0  0  0
   -1.6030    5.6910   26.6440 C   0  0  0  0  0  0  0  0  0  0  0  0
   -0.2960    5.4560   27.3130 C   0  0  0  0  0  0  0  0  0  0  0  0
   -0.1550    5.6640   28.5010 O   0  0  0  0  0  0  0  0  0  0  0  0
    0.6740    5.0440   26.5500 N   0  0  0  0  0  0  0  0  0  0  0  0
   -6.6330    5.7190   30.0110 N   0  0  0  0  0  0  0  0  0  0  0  0
   -7.9530    6.1880   29.6260 C   0  0  2  0  0  0  0  0  0  0  0  0
   -8.6900    5.3990   28.5620 C   0  0  0  0  0  0  0  0  0  0  0  0
   -9.8920    5.3100   28.6060 O   0  0  0  0  0  0  0  0  0  0  0  0
   -7.9710    7.6630   29.3160 C   0  0  0  0  0  0  0  0  0  0  0  0
   -6.9310    8.1470   28.3750 C   0  0  0  0  0  0  0  0  0  0  0  0
   -5.6550    8.2950   28.7700 C   0  0  0  0  0  0  0  0  0  0  0  0
   -7.2470    8.4990   27.0990 C   0  0  0  0  0  0  0  0  0  0  0  0
   -4.7040    8.7450   27.9110 C   0  0  0  0  0  0  0  0  0  0  0  0
   -6.2930    8.9630   26.2450 C   0  0  0  0  0  0  0  0  0  0  0  0
   -5.0250    9.0800   26.6790 C   0  0  0  0  0  0  0  0  0  0  0  0
   -4.0560    9.5350   25.8730 O   0  0  0  0  0  0  0  0  0  0  0  0
   -7.9620    4.8210   27.6310 N   0  0  0  0  0  0  0  0  0  0  0  0
   -8.5400    4.1820   26.4840 C   0  0  2  0  0  0  0  0  0  0  0  0
   -8.2230    2.7360   26.5100 C   0  0  0  0  0  0  0  0  0  0  0  0
   -7.9780    2.1350   25.5060 O   0  0  0  0  0  0  0  0  0  0  0  0
   -7.9800    4.7850   25.2290 C   0  0  0  0  0  0  0  0  0  0  0  0
   -6.5120    4.8360   25.2530 C   0  0  0  0  0  0  0  0  0  0  0  0
   -5.9090    4.2220   26.0910 O   0  0  0  0  0  0  0  0  0  0  0  0
   -5.9270    5.5480   24.3380 N   0  0  0  0  0  0  0  0  0  0  0  0
   -8.1970    2.1790   27.6900 N   0  0  0  0  0  0  0  0  0  0  0  0
   -7.7020    0.8570   27.8770 C   0  0  2  0  0  0  0  0  0  0  0  0
   -8.5010   -0.1220   27.0790 C   0  0  0  0  0  0  0  0  0  0  0  0
   -9.6850    0.0290   26.9320 O   0  0  0  0  0  0  0  0  0  0  0  0
   -7.8770    0.5210   29.3260 C   0  0  0  0  0  0  0  0  0  0  0  0
   -9.2110    0.8830   29.8480 C   0  0  0  0  0  0  0  0  0  0  0  0
   -9.4400    2.1090   30.3670 C   0  0  0  0  0  0  0  0  0  0  0  0
  -10.2300   -0.0030   29.8040 C   0  0  0  0  0  0  0  0  0  0  0  0
  -10.6710    2.4480   30.8300 C   0  0  0  0  0  0  0  0  0  0  0  0
  -11.4620    0.3310   30.2790 C   0  0  0  0  0  0  0  0  0  0  0  0
  -11.6830    1.5610   30.7870 C   0  0  0  0  0  0  0  0  0  0  0  0
   -7.8320   -1.1110   26.5210 N   0  0  0  0  0  0  0  0  0  0  0  0
   -8.5010   -2.1510   25.7860 C   0  0  2  0  0  0  0  0  0  0  0  0
   -9.1600   -3.0170   26.7920 C   0  0  0  0  0  0  0  0  0  0  0  0
   -8.5870   -3.2650   27.7980 O   0  0  0  0  0  0  0  0  0  0  0  0
   -7.4970   -2.9620   24.9870 C   0  0  0  0  0  0  0  0  0  0  0  0
   -7.7600   -3.0140   23.4940 C   0  0  0  0  0  0  0  0  0  0  0  0
   -6.6130   -2.4080   22.6960 C   0  0  0  0  0  0  0  0  0  0  0  0
   -6.0980   -3.3430   21.6030 C   0  0  0  0  0  0  0  0  0  0  0  0
   -4.6580   -3.1660   21.2600 N   0  0  0  0  0  0  0  0  0  0  0  0
  -15.8730    4.8240   30.7130 N   0  0  0  0  0  0  0  0  0  0  0  0
  -14.7980    5.4780   30.0100 C   0  0  2  0  0  0  0  0  0  0  0  0
  -14.9310    6.9710   30.0510 C   0  0  0  0  0  0  0  0  0  0  0  0
  -15.9740    7.4900   29.8040 O   0  0  0  0  0  0  0  0  0  0  0  0
  -14.9270    5.1000   28.5580 C   0  0  0  0  0  0  0  0  0  0  0  0
  -14.2130    3.8610   28.1270 C   0  0  0  0  0  0  0  0  0  0  0  0
  -12.8880    3.8800   27.8520 C   0  0  0  0  0  0  0  0  0  0  0  0
  -14.8850    2.6890   27.9430 C   0  0  0  0  0  0  0  0  0  0  0  0
  -12.2500    2.7540   27.4400 C   0  0  0  0  0  0  0  0  0  0  0  0
  -14.2340    1.5630   27.5340 C   0  0  0  0  0  0  0  0  0  0  0  0
  -12.9190    1.6200   27.2920 C   0  0  0  0  0  0  0  0  0  0  0  0
  -12.2630    0.5300   26.8730 O   0  0  0  0  0  0  0  0  0  0  0  0
  -12.3100   10.7460   26.1350 N   0  0  0  0  0  0  0  0  0  0  0  0
  -11.5860    9.8300   25.2590 C   0  0  2  0  0  0  0  0  0  0  0  0
  -11.8320   10.2100   23.8030 C   0  0  0  0  0  0  0  0  0  0  0  0
  -11.0010    9.9530   22.9320 O   0  0  0  0  0  0  0  0  0  0  0  0
  -11.9890    8.3530   25.4830 C   0  0  0  0  0  0  0  0  0  0  0  0
  -11.6540    7.9190   26.9000 C   0  0  0  0  0  0  0  0  0  0  0  0
  -13.4660    8.1400   25.1880 C   0  0  0  0  0  0  0  0  0  0  0  0
   -9.3550   13.3790   23.2960 N   0  0  0  0  0  0  0  0  0  0  0  0
   -7.9550   13.1920   23.6320 C   0  0  2  0  0  0  0  0  0  0  0  0
   -7.3120   12.1120   22.7930 C   0  0  0  0  0  0  0  0  0  0  0  0
   -7.9540   11.1460   22.4570 O   0  0  0  0  0  0  0  0  0  0  0  0
   -7.8080   12.8090   25.0900 C   0  0  0  0  0  0  0  0  0  0  0  0
   -6.3500   12.7240   25.4480 C   0  0  0  0  0  0  0  0  0  0  0  0
   -8.4790   13.8400   25.9560 C   0  0  0  0  0  0  0  0  0  0  0  0
   -6.0480   12.2940   22.4540 N   0  0  0  0  0  0  0  0  0  0  0  0
   -5.3310   11.4920   21.4750 C   0  0  2  0  0  0  0  0  0  0  0  0
   -4.9080   10.1290   21.9380 C   0  0  0  0  0  0  0  0  0  0  0  0
   -4.9200    9.7960   23.0950 O   0  0  0  0  0  0  0  0  0  0  0  0
   -4.0780   12.2980   21.2360 C   0  0  0  0  0  0  0  0  0  0  0  0
   -4.4920   13.6670   21.4880 C   0  0  0  0  0  0  0  0  0  0  0  0
   -5.3940   13.5770   22.6580 C   0  0  0  0  0  0  0  0  0  0  0  0
   -4.4650    9.3330   21.0010 N   0  0  0  0  0  0  0  0  0  0  0  0
   -4.1250    8.0070   21.3360 C   0  0  2  0  0  0  0  0  0  0  0  0
   -3.1020    8.2310   22.3810 C   0  0  0  0  0  0  0  0  0  0  0  0
   -3.0590    7.5190   23.3380 O   0  0  0  0  0  0  0  0  0  0  0  0
   -3.4850    7.3440   20.1400 C   0  0  0  0  0  0  0  0  0  0  0  0
   -3.0470    6.0400   20.4340 O   0  0  0  0  0  0  0  0  0  0  0  0
  2  1  1  0
  3  2  1  0
  4  3  2  0
  5  3  1  0
  6  5  1  6
  7  6  1  0
  8  7  2  0
  9  6  1  0
 10  9  1  0
  9 11  1  1
 13 12  1  0
 13 14  1  1
 15 14  2  0
 16 13  1  0
 17 16  1  0
 18 17  1  0
 18 12  1  0
 19 14  1  0
 20 19  1  0
 21 20  1  0
 22 21  2  0
 20 23  1  6
 24 23  1  0
 25 24  1  0
 26 25  2  0
 27 25  1  0
 29 28  1  6
 30 29  1  0
 31 30  2  0
 32 29  1  0
 33 32  1  0
 34 33  2  0
 35 33  1  0
 36 34  1  0
 37 35  2  0
 38 37  1  0
 38 36  2  0
 39 38  1  0
 40 30  1  0
 41 40  1  0
 42 41  1  0
 43 42  2  0
 41 44  1  6
 45 44  1  0
 46 45  2  0
 47 45  1  0
 48 42  1  0
 49 48  1  0
 50 49  1  0
 51 50  2  0
 49 52  1  1
 53 52  1  0
 54 53  2  0
 55 53  1  0
 56 54  1  0
 57 55  2  0
 58 57  1  0
 58 56  2  0
 59 50  1  0
 60 59  1  0
 61 60  1  0
 62 61  2  0
 60 63  1  1
 64 63  1  0
 65 64  1  0
 66 65  1  0
 67 66  1  0
 69 68  1  1
 70 69  1  0
 71 70  2  0
 72 69  1  0
 73 72  1  0
 74 73  2  0
 75 73  1  0
 76 74  1  0
 77 75  2  0
 78 77  1  0
 78 76  2  0
 79 78  1  0
 81 80  1  1
 82 81  1  0
 83 82  2  0
 84 81  1  0
 85 84  1  0
 86 84  1  0
 88 87  1  6
 89 88  1  0
 90 89  2  0
 91 88  1  0
 92 91  1  0
 93 91  1  0
 94 89  1  0
 95 94  1  0
 95 96  1  1
 97 96  2  0
 98 95  1  0
 99 98  1  0
100 94  1  0
100 99  1  0
101 96  1  0
102101  1  0
103102  1  0
104103  2  0
102105  1  6
106105  1  0
M  END
$$$$
