
     RDKit          3D

 91 89  0  0  0  0  0  0  0  0999 V2000
  119.4540  166.2670  163.6040 N   0  0  0  0  0  0  0  0  0  0  0  0
  119.3540  165.8460  162.2070 C   0  0  2  0  0  0  0  0  0  0  0  0
  117.8920  165.6610  161.7940 C   0  0  0  0  0  0  0  0  0  0  0  0
  117.0030  165.5740  162.6460 O   0  0  0  0  0  0  0  0  0  0  0  0
  120.1210  164.5190  161.9560 C   0  0  0  0  0  0  0  0  0  0  0  0
  119.3480  163.3390  162.5440 C   0  0  0  0  0  0  0  0  0  0  0  0
  120.3620  164.3270  160.4660 C   0  0  0  0  0  0  0  0  0  0  0  0
  117.6510  165.6080  160.4860 N   0  0  0  0  0  0  0  0  0  0  0  0
  116.3040  165.4340  159.9460 C   0  0  2  0  0  0  0  0  0  0  0  0
  116.1870  164.0990  159.1940 C   0  0  0  0  0  0  0  0  0  0  0  0
  116.8850  163.8710  158.2010 O   0  0  0  0  0  0  0  0  0  0  0  0
  115.9360  166.6150  158.9950 C   0  0  2  0  0  0  0  0  0  0  0  0
  114.6430  166.3890  158.4130 O   0  0  0  0  0  0  0  0  0  0  0  0
  116.9820  166.7670  157.8910 C   0  0  0  0  0  0  0  0  0  0  0  0
  115.3110  163.2180  159.6800 N   0  0  0  0  0  0  0  0  0  0  0  0
  115.1070  161.9090  159.0540 C   0  0  2  0  0  0  0  0  0  0  0  0
  113.6520  161.5730  158.7220 C   0  0  0  0  0  0  0  0  0  0  0  0
  112.7190  162.2360  159.1860 O   0  0  0  0  0  0  0  0  0  0  0  0
  115.6810  160.7960  159.9400 C   0  0  0  0  0  0  0  0  0  0  0  0
  117.1940  160.8100  160.0640 C   0  0  0  0  0  0  0  0  0  0  0  0
  117.7770  159.4180  160.2340 C   0  0  0  0  0  0  0  0  0  0  0  0
  116.9950  158.4420  160.2700 O   0  0  0  0  0  0  0  0  0  0  0  0
  119.0200  159.3060  160.3260 O   0  0  0  0  0  0  0  0  0  0  0  0
  113.4650  160.5340  157.9130 N   0  0  0  0  0  0  0  0  0  0  0  0
  112.1310  160.1020  157.5270 C   0  0  2  0  0  0  0  0  0  0  0  0
  111.6390  158.9890  158.4270 C   0  0  0  0  0  0  0  0  0  0  0  0
  112.4240  158.1680  158.9070 O   0  0  0  0  0  0  0  0  0  0  0  0
  112.1130  159.6100  156.0840 C   0  0  0  0  0  0  0  0  0  0  0  0
  112.0040  160.7370  155.0870 C   0  0  0  0  0  0  0  0  0  0  0  0
  112.0060  160.5080  153.8820 O   0  0  0  0  0  0  0  0  0  0  0  0
  111.9030  161.9650  155.5840 N   0  0  0  0  0  0  0  0  0  0  0  0
  107.4010  164.9710  169.0880 N   0  0  0  0  0  0  0  0  0  0  0  0
  106.4470  166.0000  168.7090 C   0  0  2  0  0  0  0  0  0  0  0  0
  105.0810  165.6950  169.3140 C   0  0  0  0  0  0  0  0  0  0  0  0
  104.6340  164.5430  169.2940 O   0  0  0  0  0  0  0  0  0  0  0  0
  106.3120  166.0920  167.1980 C   0  0  0  0  0  0  0  0  0  0  0  0
  105.4830  167.2780  166.7810 C   0  0  0  0  0  0  0  0  0  0  0  0
  104.4110  167.4780  167.3870 O   0  0  0  0  0  0  0  0  0  0  0  0
  105.8970  168.0070  165.8550 O   0  0  0  0  0  0  0  0  0  0  0  0
  102.2710  166.1680  168.2670 N   0  0  0  0  0  0  0  0  0  0  0  0
  101.3180  165.7330  167.2590 C   0  0  2  0  0  0  0  0  0  0  0  0
  102.1440  165.2620  166.0630 C   0  0  0  0  0  0  0  0  0  0  0  0
  102.4840  166.0520  165.1790 O   0  0  0  0  0  0  0  0  0  0  0  0
  100.4070  166.9080  166.8630 C   0  0  0  0  0  0  0  0  0  0  0  0
   98.9020  166.6270  166.9680 C   0  0  0  0  0  0  0  0  0  0  0  0
   98.0600  167.8280  166.4870 C   0  0  0  0  0  0  0  0  0  0  0  0
   96.5510  167.5320  166.5060 C   0  0  0  0  0  0  0  0  0  0  0  0
   96.1540  166.3860  165.6310 N   0  0  0  0  0  0  0  0  0  0  0  0
  102.4860  163.9750  166.0540 N   0  0  0  0  0  0  0  0  0  0  0  0
  103.2750  163.4080  164.9720 C   0  0  2  0  0  0  0  0  0  0  0  0
  102.4710  162.4320  164.1280 C   0  0  0  0  0  0  0  0  0  0  0  0
  102.0010  161.4150  164.6310 O   0  0  0  0  0  0  0  0  0  0  0  0
  104.5050  162.6990  165.5300 C   0  0  0  0  0  0  0  0  0  0  0  0
  105.4370  162.1830  164.4710 C   0  0  0  0  0  0  0  0  0  0  0  0
  105.7150  162.9460  163.3380 C   0  0  0  0  0  0  0  0  0  0  0  0
  106.0750  160.9580  164.6210 C   0  0  0  0  0  0  0  0  0  0  0  0
  106.6180  162.4970  162.3750 C   0  0  0  0  0  0  0  0  0  0  0  0
  106.9800  160.4980  163.6670 C   0  0  0  0  0  0  0  0  0  0  0  0
  107.2530  161.2700  162.5410 C   0  0  0  0  0  0  0  0  0  0  0  0
  102.3130  162.7490  162.8450 N   0  0  0  0  0  0  0  0  0  0  0  0
  101.5700  161.8860  161.9410 C   0  0  2  0  0  0  0  0  0  0  0  0
  102.2350  160.5220  161.9310 C   0  0  0  0  0  0  0  0  0  0  0  0
  101.6110  159.5220  161.6050 O   0  0  0  0  0  0  0  0  0  0  0  0
  101.5700  162.4500  160.5170 C   0  0  0  0  0  0  0  0  0  0  0  0
  101.1930  163.9160  160.4680 C   0  0  0  0  0  0  0  0  0  0  0  0
  100.2670  164.3510  161.1650 O   0  0  0  0  0  0  0  0  0  0  0  0
  101.9130  164.6820  159.6450 N   0  0  0  0  0  0  0  0  0  0  0  0
  106.5150  160.7760  158.0200 N   0  0  0  0  0  0  0  0  0  0  0  0
  107.1410  161.8860  157.3360 C   0  0  0  0  0  0  0  0  0  0  0  0
  108.4940  162.2420  157.9110 C   0  0  0  0  0  0  0  0  0  0  0  0
  109.1330  161.4290  158.5830 O   0  0  0  0  0  0  0  0  0  0  0  0
  108.9590  163.4710  157.6550 N   0  0  0  0  0  0  0  0  0  0  0  0
  110.2450  163.9740  158.1340 C   0  0  2  0  0  0  0  0  0  0  0  0
  110.1300  164.4950  159.5640 C   0  0  0  0  0  0  0  0  0  0  0  0
  109.4200  165.4670  159.8060 O   0  0  0  0  0  0  0  0  0  0  0  0
  110.5450  165.0840  157.1440 C   0  0  0  0  0  0  0  0  0  0  0  0
  109.1880  165.6820  156.9390 C   0  0  0  0  0  0  0  0  0  0  0  0
  108.3000  164.4650  156.7850 C   0  0  0  0  0  0  0  0  0  0  0  0
  110.8170  163.8520  160.5060 N   0  0  0  0  0  0  0  0  0  0  0  0
  110.7730  164.2800  161.9060 C   0  0  2  0  0  0  0  0  0  0  0  0
  111.9230  165.2400  162.1930 C   0  0  0  0  0  0  0  0  0  0  0  0
  113.0770  164.9620  161.8580 O   0  0  0  0  0  0  0  0  0  0  0  0
  110.8620  163.0750  162.8500 C   0  0  0  0  0  0  0  0  0  0  0  0
  110.6980  163.4950  164.6200 S   0  0  0  0  0  0  0  0  0  0  0  0
  111.6010  166.3660  162.8200 N   0  0  0  0  0  0  0  0  0  0  0  0
  112.5950  167.3890  163.1400 C   0  0  2  0  0  0  0  0  0  0  0  0
  113.3250  167.1790  164.4690 C   0  0  0  0  0  0  0  0  0  0  0  0
  114.5420  167.3710  164.5590 O   0  0  0  0  0  0  0  0  0  0  0  0
  111.9470  168.7900  163.1600 C   0  0  2  0  0  0  0  0  0  0  0  0
  110.7940  168.7690  164.0120 O   0  0  0  0  0  0  0  0  0  0  0  0
  111.5300  169.2120  161.7570 C   0  0  0  0  0  0  0  0  0  0  0  0
  2  1  1  1
  3  2  1  0
  4  3  2  0
  5  2  1  0
  6  5  1  0
  7  5  1  0
  8  3  1  0
  9  8  1  6
 10  9  1  0
 11 10  2  0
 12  9  1  0
 13 12  1  0
 12 14  1  6
 15 10  1  0
 16 15  1  0
 17 16  1  0
 18 17  2  0
 16 19  1  1
 20 19  1  0
 21 20  1  0
 22 21  2  0
 23 21  1  0
 24 17  1  0
 25 24  1  0
 26 25  1  0
 27 26  2  0
 25 28  1  6
 29 28  1  0
 30 29  2  0
 31 29  1  0
 33 32  1  6
 34 33  1  0
 35 34  2  0
 36 33  1  0
 37 36  1  0
 38 37  2  0
 39 37  1  0
 41 40  1  1
 42 41  1  0
 43 42  2  0
 44 41  1  0
 45 44  1  0
 46 45  1  0
 47 46  1  0
 48 47  1  0
 49 42  1  0
 50 49  1  0
 51 50  1  0
 52 51  2  0
 50 53  1  1
 54 53  1  0
 55 54  2  0
 56 54  1  0
 57 55  1  0
 58 56  2  0
 59 57  2  0
 59 58  1  0
 60 51  1  0
 61 60  1  0
 62 61  1  0
 63 62  2  0
 61 64  1  6
 65 64  1  0
 66 65  2  0
 67 65  1  0
 69 68  1  0
 70 69  1  0
 71 70  2  0
 72 70  1  0
 73 72  1  0
 73 74  1  1
 75 74  2  0
 76 73  1  0
 77 76  1  0
 78 72  1  0
 78 77  1  0
 79 74  1  0
 80 79  1  0
 81 80  1  0
 82 81  2  0
 80 83  1  1
 84 83  1  0
 85 81  1  0
 86 85  1  1
 87 86  1  0
 88 87  2  0
 89 86  1  0
 90 89  1  0
 89 91  1  6
M  END
$$$$
