
     RDKit          3D

160162  0  0  0  0  0  0  0  0999 V2000
  115.3110  163.2180  159.6800 N   0  0  0  0  0  0  0  0  0  0  0  0
  115.1070  161.9090  159.0540 C   0  0  2  0  0  0  0  0  0  0  0  0
  113.6520  161.5730  158.7220 C   0  0  0  0  0  0  0  0  0  0  0  0
  112.7190  162.2360  159.1860 O   0  0  0  0  0  0  0  0  0  0  0  0
  115.6810  160.7960  159.9400 C   0  0  0  0  0  0  0  0  0  0  0  0
  117.1940  160.8100  160.0640 C   0  0  0  0  0  0  0  0  0  0  0  0
  117.7770  159.4180  160.2340 C   0  0  0  0  0  0  0  0  0  0  0  0
  116.9950  158.4420  160.2700 O   0  0  0  0  0  0  0  0  0  0  0  0
  119.0200  159.3060  160.3260 O   0  0  0  0  0  0  0  0  0  0  0  0
  113.4650  160.5340  157.9130 N   0  0  0  0  0  0  0  0  0  0  0  0
  112.1310  160.1020  157.5270 C   0  0  2  0  0  0  0  0  0  0  0  0
  111.6390  158.9890  158.4270 C   0  0  0  0  0  0  0  0  0  0  0  0
  112.4240  158.1680  158.9070 O   0  0  0  0  0  0  0  0  0  0  0  0
  112.1130  159.6100  156.0840 C   0  0  0  0  0  0  0  0  0  0  0  0
  112.0040  160.7370  155.0870 C   0  0  0  0  0  0  0  0  0  0  0  0
  112.0060  160.5080  153.8820 O   0  0  0  0  0  0  0  0  0  0  0  0
  111.9030  161.9650  155.5840 N   0  0  0  0  0  0  0  0  0  0  0  0
  110.3310  158.9780  158.6550 N   0  0  0  0  0  0  0  0  0  0  0  0
  109.6880  157.9700  159.4820 C   0  0  2  0  0  0  0  0  0  0  0  0
  108.4230  157.4850  158.7940 C   0  0  0  0  0  0  0  0  0  0  0  0
  107.7600  158.2400  158.0730 O   0  0  0  0  0  0  0  0  0  0  0  0
  109.3200  158.5460  160.8440 C   0  0  0  0  0  0  0  0  0  0  0  0
  110.4590  158.6080  161.8070 C   0  0  0  0  0  0  0  0  0  0  0  0
  111.5480  159.4280  161.5650 C   0  0  0  0  0  0  0  0  0  0  0  0
  110.4340  157.8520  162.9720 C   0  0  0  0  0  0  0  0  0  0  0  0
  112.5970  159.4920  162.4650 C   0  0  0  0  0  0  0  0  0  0  0  0
  111.4770  157.9100  163.8810 C   0  0  0  0  0  0  0  0  0  0  0  0
  112.5610  158.7300  163.6300 C   0  0  0  0  0  0  0  0  0  0  0  0
  108.0880  156.2190  159.0120 N   0  0  0  0  0  0  0  0  0  0  0  0
  106.8850  155.6630  158.4210 C   0  0  2  0  0  0  0  0  0  0  0  0
  106.3510  154.5130  159.2610 C   0  0  0  0  0  0  0  0  0  0  0  0
  106.5620  153.3490  158.9400 O   0  0  0  0  0  0  0  0  0  0  0  0
  107.1650  155.1910  157.0000 C   0  0  0  0  0  0  0  0  0  0  0  0
  105.9080  154.8190  156.2630 C   0  0  0  0  0  0  0  0  0  0  0  0
  104.8130  155.2070  156.6560 O   0  0  0  0  0  0  0  0  0  0  0  0
  106.0550  154.0770  155.1760 N   0  0  0  0  0  0  0  0  0  0  0  0
  105.6630  154.8530  160.3470 N   0  0  0  0  0  0  0  0  0  0  0  0
  105.0910  153.8510  161.2380 C   0  0  2  0  0  0  0  0  0  0  0  0
  104.2760  152.8220  160.4620 C   0  0  0  0  0  0  0  0  0  0  0  0
  104.1660  151.6690  160.8740 O   0  0  0  0  0  0  0  0  0  0  0  0
  104.1700  154.5110  162.2740 C   0  0  0  0  0  0  0  0  0  0  0  0
  102.9510  155.2030  161.6670 C   0  0  0  0  0  0  0  0  0  0  0  0
  101.5890  155.4320  162.8280 S   0  0  0  0  0  0  0  0  0  0  0  0
  101.8810  157.1010  163.3970 C   0  0  0  0  0  0  0  0  0  0  0  0
  103.7050  153.2430  159.3390 N   0  0  0  0  0  0  0  0  0  0  0  0
  102.8620  152.3700  158.5340 C   0  0  2  0  0  0  0  0  0  0  0  0
  103.6670  151.3850  157.7300 C   0  0  0  0  0  0  0  0  0  0  0  0
  103.1220  150.4480  157.1410 O   0  0  0  0  0  0  0  0  0  0  0  0
  101.9820  153.2090  157.6260 C   0  0  0  0  0  0  0  0  0  0  0  0
  101.3140  154.3030  158.3810 C   0  0  0  0  0  0  0  0  0  0  0  0
  101.7520  155.5950  158.5350 C   0  0  0  0  0  0  0  0  0  0  0  0
  100.1100  154.1960  159.1410 C   0  0  0  0  0  0  0  0  0  0  0  0
  100.8890  156.2970  159.3460 N   0  0  0  0  0  0  0  0  0  0  0  0
   99.8710  155.4610  159.7310 C   0  0  0  0  0  0  0  0  0  0  0  0
   99.2030  153.1540  159.3820 C   0  0  0  0  0  0  0  0  0  0  0  0
   98.7670  155.7070  160.5430 C   0  0  0  0  0  0  0  0  0  0  0  0
   98.1090  153.3990  160.1820 C   0  0  0  0  0  0  0  0  0  0  0  0
   97.8970  154.6660  160.7540 C   0  0  0  0  0  0  0  0  0  0  0  0
  102.4860  163.9750  166.0540 N   0  0  0  0  0  0  0  0  0  0  0  0
  103.2750  163.4080  164.9720 C   0  0  2  0  0  0  0  0  0  0  0  0
  102.4710  162.4320  164.1280 C   0  0  0  0  0  0  0  0  0  0  0  0
  102.0010  161.4150  164.6310 O   0  0  0  0  0  0  0  0  0  0  0  0
  104.5050  162.6990  165.5300 C   0  0  0  0  0  0  0  0  0  0  0  0
  105.4370  162.1830  164.4710 C   0  0  0  0  0  0  0  0  0  0  0  0
  105.7150  162.9460  163.3380 C   0  0  0  0  0  0  0  0  0  0  0  0
  106.0750  160.9580  164.6210 C   0  0  0  0  0  0  0  0  0  0  0  0
  106.6180  162.4970  162.3750 C   0  0  0  0  0  0  0  0  0  0  0  0
  106.9800  160.4980  163.6670 C   0  0  0  0  0  0  0  0  0  0  0  0
  107.2530  161.2700  162.5410 C   0  0  0  0  0  0  0  0  0  0  0  0
  102.3130  162.7490  162.8450 N   0  0  0  0  0  0  0  0  0  0  0  0
  101.5700  161.8860  161.9410 C   0  0  2  0  0  0  0  0  0  0  0  0
  102.2350  160.5220  161.9310 C   0  0  0  0  0  0  0  0  0  0  0  0
  101.6110  159.5220  161.6050 O   0  0  0  0  0  0  0  0  0  0  0  0
  101.5700  162.4500  160.5170 C   0  0  0  0  0  0  0  0  0  0  0  0
  101.1930  163.9160  160.4680 C   0  0  0  0  0  0  0  0  0  0  0  0
  100.2670  164.3510  161.1650 O   0  0  0  0  0  0  0  0  0  0  0  0
  101.9130  164.6820  159.6450 N   0  0  0  0  0  0  0  0  0  0  0  0
  103.5140  160.4890  162.2880 N   0  0  0  0  0  0  0  0  0  0  0  0
  104.2420  159.2350  162.3060 C   0  0  0  0  0  0  0  0  0  0  0  0
  104.5540  158.7580  160.9050 C   0  0  0  0  0  0  0  0  0  0  0  0
  104.9280  157.6030  160.6970 O   0  0  0  0  0  0  0  0  0  0  0  0
  104.4050  159.6520  159.9350 N   0  0  0  0  0  0  0  0  0  0  0  0
  104.6650  159.3110  158.5460 C   0  0  2  0  0  0  0  0  0  0  0  0
  105.2430  160.4970  157.7850 C   0  0  0  0  0  0  0  0  0  0  0  0
  104.5570  161.1490  157.0000 O   0  0  0  0  0  0  0  0  0  0  0  0
  103.3650  158.8280  157.8530 C   0  0  2  0  0  0  0  0  0  0  0  0
  103.6140  158.5950  156.4590 O   0  0  0  0  0  0  0  0  0  0  0  0
  102.2530  159.8660  158.0130 C   0  0  0  0  0  0  0  0  0  0  0  0
  106.5150  160.7760  158.0200 N   0  0  0  0  0  0  0  0  0  0  0  0
  107.1410  161.8860  157.3360 C   0  0  0  0  0  0  0  0  0  0  0  0
  108.4940  162.2420  157.9110 C   0  0  0  0  0  0  0  0  0  0  0  0
  109.1330  161.4290  158.5830 O   0  0  0  0  0  0  0  0  0  0  0  0
  108.9590  163.4710  157.6550 N   0  0  0  0  0  0  0  0  0  0  0  0
  110.2450  163.9740  158.1340 C   0  0  2  0  0  0  0  0  0  0  0  0
  110.1300  164.4950  159.5640 C   0  0  0  0  0  0  0  0  0  0  0  0
  109.4200  165.4670  159.8060 O   0  0  0  0  0  0  0  0  0  0  0  0
  110.5450  165.0840  157.1440 C   0  0  0  0  0  0  0  0  0  0  0  0
  109.1880  165.6820  156.9390 C   0  0  0  0  0  0  0  0  0  0  0  0
  108.3000  164.4650  156.7850 C   0  0  0  0  0  0  0  0  0  0  0  0
  110.8170  163.8520  160.5060 N   0  0  0  0  0  0  0  0  0  0  0  0
  110.7730  164.2800  161.9060 C   0  0  2  0  0  0  0  0  0  0  0  0
  111.9230  165.2400  162.1930 C   0  0  0  0  0  0  0  0  0  0  0  0
  113.0770  164.9620  161.8580 O   0  0  0  0  0  0  0  0  0  0  0  0
  110.8620  163.0750  162.8500 C   0  0  0  0  0  0  0  0  0  0  0  0
  110.6980  163.4950  164.6200 S   0  0  0  0  0  0  0  0  0  0  0  0
   96.6570  157.7930  160.3800 N   0  0  0  0  0  0  0  0  0  0  0  0
   96.0600  156.9690  159.3390 C   0  0  2  0  0  0  0  0  0  0  0  0
   96.9990  156.9780  158.1410 C   0  0  0  0  0  0  0  0  0  0  0  0
   97.4540  158.0460  157.7240 O   0  0  0  0  0  0  0  0  0  0  0  0
   94.6950  157.5250  158.9310 C   0  0  0  0  0  0  0  0  0  0  0  0
   94.1090  156.7430  157.9020 O   0  0  0  0  0  0  0  0  0  0  0  0
   97.2990  155.7960  157.6090 N   0  0  0  0  0  0  0  0  0  0  0  0
   98.1760  155.6680  156.4570 C   0  0  2  0  0  0  0  0  0  0  0  0
   97.5880  156.4370  155.2670 C   0  0  0  0  0  0  0  0  0  0  0  0
   98.2720  156.6740  154.2500 O   0  0  0  0  0  0  0  0  0  0  0  0
   98.3110  154.1930  156.1040 C   0  0  0  0  0  0  0  0  0  0  0  0
   99.2850  153.8580  154.9710 C   0  0  0  0  0  0  0  0  0  0  0  0
   99.3890  152.3470  154.7200 C   0  0  0  0  0  0  0  0  0  0  0  0
   99.9050  151.6230  155.6000 O   0  0  0  0  0  0  0  0  0  0  0  0
   98.9500  151.8770  153.6470 O   0  0  0  0  0  0  0  0  0  0  0  0
   96.3130  156.8190  155.4000 N   0  0  0  0  0  0  0  0  0  0  0  0
   95.5810  157.5610  154.3690 C   0  0  2  0  0  0  0  0  0  0  0  0
   94.1300  157.7160  154.8740 C   0  0  0  0  0  0  0  0  0  0  0  0
   93.3310  156.7600  154.8300 O   0  0  0  0  0  0  0  0  0  0  0  0
   95.5960  156.8010  153.0270 C   0  0  0  0  0  0  0  0  0  0  0  0
   94.9830  157.6250  151.8740 C   0  0  0  0  0  0  0  0  0  0  0  0
   93.8270  158.0820  151.9830 O   0  0  0  0  0  0  0  0  0  0  0  0
   95.7340  157.7770  150.7760 N   0  0  0  0  0  0  0  0  0  0  0  0
   93.7840  158.8950  155.3760 N   0  0  0  0  0  0  0  0  0  0  0  0
   92.4290  159.0670  155.8750 C   0  0  2  0  0  0  0  0  0  0  0  0
   91.4410  159.0420  154.7230 C   0  0  0  0  0  0  0  0  0  0  0  0
   90.2580  158.7390  154.9120 O   0  0  0  0  0  0  0  0  0  0  0  0
   92.2860  160.3740  156.6440 C   0  0  0  0  0  0  0  0  0  0  0  0
   93.0670  160.4190  157.9090 C   0  0  0  0  0  0  0  0  0  0  0  0
   94.3870  160.8170  157.9110 C   0  0  0  0  0  0  0  0  0  0  0  0
   92.4550  160.1220  159.1240 C   0  0  0  0  0  0  0  0  0  0  0  0
   95.0870  160.9290  159.1080 C   0  0  0  0  0  0  0  0  0  0  0  0
   93.1570  160.2320  160.3360 C   0  0  0  0  0  0  0  0  0  0  0  0
   94.4650  160.6360  160.3200 C   0  0  0  0  0  0  0  0  0  0  0  0
   91.6450  152.0240  155.1340 N   0  0  0  0  0  0  0  0  0  0  0  0
   92.7710  152.0690  156.0630 C   0  0  2  0  0  0  0  0  0  0  0  0
   92.3320  152.4310  157.4690 C   0  0  0  0  0  0  0  0  0  0  0  0
   91.7220  153.4740  157.7020 O   0  0  0  0  0  0  0  0  0  0  0  0
   93.8180  153.0830  155.5990 C   0  0  0  0  0  0  0  0  0  0  0  0
   94.1150  153.0460  154.1160 C   0  0  0  0  0  0  0  0  0  0  0  0
   94.7050  151.7240  153.6690 C   0  0  0  0  0  0  0  0  0  0  0  0
   96.1140  151.5520  154.1790 C   0  0  0  0  0  0  0  0  0  0  0  0
   96.7700  150.3880  153.5310 N   0  0  0  0  0  0  0  0  0  0  0  0
  104.8550  154.0010  166.5330 N   0  0  0  0  0  0  0  0  0  0  0  0
  104.6370  155.0500  165.5510 C   0  0  2  0  0  0  0  0  0  0  0  0
  105.7330  156.0830  165.5260 C   0  0  0  0  0  0  0  0  0  0  0  0
  105.9230  156.7460  164.5120 O   0  0  0  0  0  0  0  0  0  0  0  0
  103.3170  155.7620  165.8080 C   0  0  0  0  0  0  0  0  0  0  0  0
  103.3600  156.6980  166.9900 C   0  0  0  0  0  0  0  0  0  0  0  0
  103.7400  158.0280  166.8400 C   0  0  0  0  0  0  0  0  0  0  0  0
  103.0380  156.2430  168.2670 C   0  0  0  0  0  0  0  0  0  0  0  0
  103.7950  158.8840  167.9320 C   0  0  0  0  0  0  0  0  0  0  0  0
  103.0970  157.0860  169.3620 C   0  0  0  0  0  0  0  0  0  0  0  0
  103.4750  158.4070  169.1900 C   0  0  0  0  0  0  0  0  0  0  0  0
  103.5320  159.2370  170.2850 O   0  0  0  0  0  0  0  0  0  0  0  0
  2  1  1  1
  3  2  1  0
  4  3  2  0
  5  2  1  0
  6  5  1  0
  7  6  1  0
  8  7  2  0
  9  7  1  0
 10  3  1  0
 11 10  1  0
 12 11  1  0
 13 12  2  0
 11 14  1  6
 15 14  1  0
 16 15  2  0
 17 15  1  0
 18 12  1  0
 19 18  1  0
 20 19  1  0
 21 20  2  0
 19 22  1  1
 23 22  1  0
 24 23  2  0
 25 23  1  0
 26 24  1  0
 27 25  2  0
 28 27  1  0
 28 26  2  0
 29 20  1  0
 30 29  1  0
 31 30  1  0
 32 31  2  0
 30 33  1  6
 34 33  1  0
 35 34  2  0
 36 34  1  0
 37 31  1  0
 38 37  1  0
 39 38  1  0
 40 39  2  0
 38 41  1  1
 42 41  1  0
 43 42  1  0
 44 43  1  0
 45 39  1  0
 46 45  1  0
 47 46  1  0
 48 47  2  0
 46 49  1  6
 50 49  1  0
 51 50  2  0
 52 50  1  0
 53 51  1  0
 54 53  1  0
 54 52  2  0
 55 52  1  0
 56 54  1  0
 57 55  2  0
 58 57  1  0
 58 56  2  0
 60 59  1  1
 61 60  1  0
 62 61  2  0
 63 60  1  0
 64 63  1  0
 65 64  2  0
 66 64  1  0
 67 65  1  0
 68 66  2  0
 69 67  2  0
 69 68  1  0
 70 61  1  0
 71 70  1  0
 72 71  1  0
 73 72  2  0
 71 74  1  6
 75 74  1  0
 76 75  2  0
 77 75  1  0
 78 72  1  0
 79 78  1  0
 80 79  1  0
 81 80  2  0
 82 80  1  0
 83 82  1  1
 84 83  1  0
 85 84  2  0
 86 83  1  0
 87 86  1  0
 86 88  1  6
 89 84  1  0
 90 89  1  0
 91 90  1  0
 92 91  2  0
 93 91  1  0
 94 93  1  0
 94 95  1  1
 96 95  2  0
 97 94  1  0
 98 97  1  0
 99 93  1  0
 99 98  1  0
100 95  1  0
101100  1  0
102101  1  0
103102  2  0
101104  1  1
105104  1  0
107106  1  1
108107  1  0
109108  2  0
110107  1  0
111110  1  0
112108  1  0
113112  1  0
114113  1  0
115114  2  0
113116  1  6
117116  1  0
118117  1  0
119118  2  0
120118  1  0
121114  1  0
122121  1  0
123122  1  0
124123  2  0
122125  1  6
126125  1  0
127126  2  0
128126  1  0
129123  1  0
130129  1  0
131130  1  0
132131  2  0
130133  1  6
134133  1  0
135134  2  0
136134  1  0
137135  1  0
138136  2  0
139138  1  0
139137  2  0
141140  1  6
142141  1  0
143142  2  0
144141  1  0
145144  1  0
146145  1  0
147146  1  0
148147  1  0
150149  1  1
151150  1  0
152151  2  0
153150  1  0
154153  1  0
155154  2  0
156154  1  0
157155  1  0
158156  2  0
159158  1  0
159157  2  0
160159  1  0
M  END
$$$$
