
     RDKit          3D

167163  0  0  0  0  0  0  0  0999 V2000
   65.4310   28.3900  311.8610 N   0  0  0  0  0  0  0  0  0  0  0  0
   66.5650   27.4830  312.0570 C   0  0  2  0  0  0  0  0  0  0  0  0
   66.0970   26.0940  312.4920 C   0  0  0  0  0  0  0  0  0  0  0  0
   65.1920   25.9820  313.3230 O   0  0  0  0  0  0  0  0  0  0  0  0
   67.5480   28.0610  313.0720 C   0  0  0  0  0  0  0  0  0  0  0  0
   66.9270   28.3120  314.3230 O   0  0  0  0  0  0  0  0  0  0  0  0
   66.7080   25.0410  311.9180 N   0  0  0  0  0  0  0  0  0  0  0  0
   66.3730   23.6500  312.2280 C   0  0  2  0  0  0  0  0  0  0  0  0
   67.0500   23.1670  313.5160 C   0  0  0  0  0  0  0  0  0  0  0  0
   68.2060   22.7350  313.4960 O   0  0  0  0  0  0  0  0  0  0  0  0
   66.6870   22.7220  311.0370 C   0  0  0  0  0  0  0  0  0  0  0  0
   65.4840   22.4250  310.1470 C   0  0  0  0  0  0  0  0  0  0  0  0
   64.6530   21.2770  310.6620 C   0  0  0  0  0  0  0  0  0  0  0  0
   63.8650   21.4190  311.6060 O   0  0  0  0  0  0  0  0  0  0  0  0
   64.7850   20.1230  310.0340 N   0  0  0  0  0  0  0  0  0  0  0  0
   66.3200   23.2680  314.6390 N   0  0  0  0  0  0  0  0  0  0  0  0
   66.7780   22.8340  315.9580 C   0  0  2  0  0  0  0  0  0  0  0  0
   66.4310   21.3450  316.0860 C   0  0  0  0  0  0  0  0  0  0  0  0
   65.3150   20.9960  316.4950 O   0  0  0  0  0  0  0  0  0  0  0  0
   66.1230   23.6820  317.0660 C   0  0  0  0  0  0  0  0  0  0  0  0
   66.8650   23.6400  318.4020 C   0  0  0  0  0  0  0  0  0  0  0  0
   66.1460   24.4120  319.4850 C   0  0  0  0  0  0  0  0  0  0  0  0
   65.4390   23.8400  320.3230 O   0  0  0  0  0  0  0  0  0  0  0  0
   66.3190   25.7260  319.5020 N   0  0  0  0  0  0  0  0  0  0  0  0
   64.9400   18.3980  315.3270 N   0  0  0  0  0  0  0  0  0  0  0  0
   63.7320   17.9790  314.6220 C   0  0  0  0  0  0  0  0  0  0  0  0
   62.6020   18.9880  314.7230 C   0  0  0  0  0  0  0  0  0  0  0  0
   61.4720   18.6990  314.3190 O   0  0  0  0  0  0  0  0  0  0  0  0
   62.9150   20.1820  315.2590 N   0  0  0  0  0  0  0  0  0  0  0  0
   61.9740   21.2890  315.4530 C   0  0  2  0  0  0  0  0  0  0  0  0
   62.4900   22.5510  314.7500 C   0  0  0  0  0  0  0  0  0  0  0  0
   63.6640   22.6050  314.3780 O   0  0  0  0  0  0  0  0  0  0  0  0
   61.7640   21.5470  316.9540 C   0  0  0  0  0  0  0  0  0  0  0  0
   61.3850   20.3250  317.7670 C   0  0  0  0  0  0  0  0  0  0  0  0
   60.6290   19.4460  317.3320 O   0  0  0  0  0  0  0  0  0  0  0  0
   61.8930   20.2550  318.9880 N   0  0  0  0  0  0  0  0  0  0  0  0
   61.6180   23.5640  314.5690 N   0  0  0  0  0  0  0  0  0  0  0  0
   61.9770   24.8270  313.9160 C   0  0  2  0  0  0  0  0  0  0  0  0
   61.9810   25.9690  314.9340 C   0  0  0  0  0  0  0  0  0  0  0  0
   60.9620   26.2260  315.5790 O   0  0  0  0  0  0  0  0  0  0  0  0
   61.0860   25.1370  312.6740 C   0  0  0  0  0  0  0  0  0  0  0  0
   61.4400   26.4830  312.0450 C   0  0  0  0  0  0  0  0  0  0  0  0
   61.1880   24.0270  311.6340 C   0  0  0  0  0  0  0  0  0  0  0  0
   63.1320   26.6470  315.0750 N   0  0  0  0  0  0  0  0  0  0  0  0
   63.3040   27.7850  315.9790 C   0  0  2  0  0  0  0  0  0  0  0  0
   63.2780   29.0920  315.1840 C   0  0  0  0  0  0  0  0  0  0  0  0
   63.9930   29.2250  314.1830 O   0  0  0  0  0  0  0  0  0  0  0  0
   64.6110   27.6560  316.7860 C   0  0  0  0  0  0  0  0  0  0  0  0
   64.7160   28.6420  317.9450 C   0  0  0  0  0  0  0  0  0  0  0  0
   66.1240   29.2100  318.0630 C   0  0  0  0  0  0  0  0  0  0  0  0
   66.2290   30.2880  319.1150 C   0  0  0  0  0  0  0  0  0  0  0  0
   66.2520   29.7280  320.4940 N   0  0  0  0  0  0  0  0  0  0  0  0
   62.4460   30.0520  315.6260 N   0  0  0  0  0  0  0  0  0  0  0  0
   62.3010   31.3680  314.9950 C   0  0  2  0  0  0  0  0  0  0  0  0
   63.0120   32.4080  315.8680 C   0  0  0  0  0  0  0  0  0  0  0  0
   62.4970   32.7840  316.9250 O   0  0  0  0  0  0  0  0  0  0  0  0
   60.8080   31.7130  314.6960 C   0  0  2  0  0  0  0  0  0  0  0  0
   60.1360   30.6230  313.8260 C   0  0  0  0  0  0  0  0  0  0  0  0
   60.6720   33.0950  314.0390 C   0  0  0  0  0  0  0  0  0  0  0  0
   58.6680   30.3590  314.1480 C   0  0  0  0  0  0  0  0  0  0  0  0
   54.8270   34.7550  311.2880 N   0  0  0  0  0  0  0  0  0  0  0  0
   55.1190   33.3670  310.9060 C   0  0  2  0  0  0  0  0  0  0  0  0
   53.9020   32.5370  310.4840 C   0  0  0  0  0  0  0  0  0  0  0  0
   52.7790   32.8210  310.9070 O   0  0  0  0  0  0  0  0  0  0  0  0
   55.9150   32.6540  312.0250 C   0  0  0  0  0  0  0  0  0  0  0  0
   55.1270   32.3930  313.2940 C   0  0  0  0  0  0  0  0  0  0  0  0
   54.9830   33.3790  314.2630 C   0  0  0  0  0  0  0  0  0  0  0  0
   54.5620   31.1440  313.5440 C   0  0  0  0  0  0  0  0  0  0  0  0
   54.2630   33.1450  315.4330 C   0  0  0  0  0  0  0  0  0  0  0  0
   53.8400   30.8970  314.7110 C   0  0  0  0  0  0  0  0  0  0  0  0
   53.6940   31.9010  315.6550 C   0  0  0  0  0  0  0  0  0  0  0  0
   52.9870   31.6640  316.8100 O   0  0  0  0  0  0  0  0  0  0  0  0
   53.2600   28.0770  309.3460 N   0  0  0  0  0  0  0  0  0  0  0  0
   53.7870   26.7190  309.1480 C   0  0  2  0  0  0  0  0  0  0  0  0
   52.7170   25.7210  308.6780 C   0  0  0  0  0  0  0  0  0  0  0  0
   51.5270   25.9360  308.9030 O   0  0  0  0  0  0  0  0  0  0  0  0
   54.4890   26.2270  310.4090 C   0  0  0  0  0  0  0  0  0  0  0  0
   56.0190   27.1110  310.8030 S   0  0  0  0  0  0  0  0  0  0  0  0
   52.7840   22.4130  309.6610 N   0  0  0  0  0  0  0  0  0  0  0  0
   52.6270   21.5230  310.8120 C   0  0  2  0  0  0  0  0  0  0  0  0
   51.5390   21.9730  311.8030 C   0  0  0  0  0  0  0  0  0  0  0  0
   51.1350   23.1370  311.7920 O   0  0  0  0  0  0  0  0  0  0  0  0
   53.9700   21.3070  311.5040 C   0  0  0  0  0  0  0  0  0  0  0  0
   55.3070   20.8050  310.3800 S   0  0  0  0  0  0  0  0  0  0  0  0
   51.0900   21.0330  312.6400 N   0  0  0  0  0  0  0  0  0  0  0  0
   50.0490   21.2430  313.6440 C   0  0  0  0  0  0  0  0  0  0  0  0
   50.3960   22.1890  314.7810 C   0  0  0  0  0  0  0  0  0  0  0  0
   51.5230   22.6880  314.8660 O   0  0  0  0  0  0  0  0  0  0  0  0
   49.4130   22.4240  315.6490 N   0  0  0  0  0  0  0  0  0  0  0  0
   49.5330   23.3120  316.8000 C   0  0  0  0  0  0  0  0  0  0  0  0
   49.4840   24.7740  316.3960 C   0  0  0  0  0  0  0  0  0  0  0  0
   48.5910   25.1740  315.6390 O   0  0  0  0  0  0  0  0  0  0  0  0
   50.4470   25.5760  316.8870 N   0  0  0  0  0  0  0  0  0  0  0  0
   50.5550   26.9990  316.5580 C   0  0  2  0  0  0  0  0  0  0  0  0
   51.1950   27.1200  315.1680 C   0  0  0  0  0  0  0  0  0  0  0  0
   52.3520   26.7370  314.9850 O   0  0  0  0  0  0  0  0  0  0  0  0
   51.3730   27.7420  317.6120 C   0  0  0  0  0  0  0  0  0  0  0  0
   51.3660   29.1410  317.3770 O   0  0  0  0  0  0  0  0  0  0  0  0
   50.4110   27.6000  314.1870 N   0  0  0  0  0  0  0  0  0  0  0  0
   50.8410   27.7310  312.7900 C   0  0  2  0  0  0  0  0  0  0  0  0
   50.5370   29.1020  312.1470 C   0  0  0  0  0  0  0  0  0  0  0  0
   50.5340   29.2210  310.9140 O   0  0  0  0  0  0  0  0  0  0  0  0
   50.3090   26.5560  311.9420 C   0  0  0  0  0  0  0  0  0  0  0  0
   48.8930   26.1180  312.2430 C   0  0  0  0  0  0  0  0  0  0  0  0
   47.9710   26.9300  312.4090 O   0  0  0  0  0  0  0  0  0  0  0  0
   48.6820   24.8100  312.3020 N   0  0  0  0  0  0  0  0  0  0  0  0
   60.1530   31.9080  319.2530 N   0  0  0  0  0  0  0  0  0  0  0  0
   59.1940   30.8090  319.1820 C   0  0  2  0  0  0  0  0  0  0  0  0
   59.7950   29.5250  318.6180 C   0  0  0  0  0  0  0  0  0  0  0  0
   60.7180   29.5810  317.8000 O   0  0  0  0  0  0  0  0  0  0  0  0
   57.9640   31.2330  318.3670 C   0  0  0  0  0  0  0  0  0  0  0  0
   56.6470   30.7120  318.9380 C   0  0  0  0  0  0  0  0  0  0  0  0
   55.5840   31.8080  319.0200 C   0  0  0  0  0  0  0  0  0  0  0  0
   55.6200   32.5700  320.3270 C   0  0  0  0  0  0  0  0  0  0  0  0
   54.6220   33.6680  320.3510 N   0  0  0  0  0  0  0  0  0  0  0  0
   59.2630   28.3720  319.0570 N   0  0  0  0  0  0  0  0  0  0  0  0
   59.7040   27.0480  318.6110 C   0  0  2  0  0  0  0  0  0  0  0  0
   58.5150   26.1740  318.1680 C   0  0  0  0  0  0  0  0  0  0  0  0
   57.5510   26.0070  318.9190 O   0  0  0  0  0  0  0  0  0  0  0  0
   60.6940   26.3600  319.6020 C   0  0  0  0  0  0  0  0  0  0  0  0
   60.0530   26.0760  320.9630 C   0  0  0  0  0  0  0  0  0  0  0  0
   61.3070   25.0930  319.0070 C   0  0  0  0  0  0  0  0  0  0  0  0
   58.5740   25.6670  316.9230 N   0  0  0  0  0  0  0  0  0  0  0  0
   57.5330   24.8150  316.3370 C   0  0  2  0  0  0  0  0  0  0  0  0
   58.0020   23.3560  316.4090 C   0  0  0  0  0  0  0  0  0  0  0  0
   58.9620   22.9820  315.7340 O   0  0  0  0  0  0  0  0  0  0  0  0
   57.1440   25.2620  314.8870 C   0  0  2  0  0  0  0  0  0  0  0  0
   56.9190   26.8020  314.7490 C   0  0  0  0  0  0  0  0  0  0  0  0
   55.9740   24.4400  314.3110 C   0  0  0  0  0  0  0  0  0  0  0  0
   55.7630   27.4710  315.6060 C   0  0  0  0  0  0  0  0  0  0  0  0
   57.3340   22.5510  317.2570 N   0  0  0  0  0  0  0  0  0  0  0  0
   57.6550   21.1380  317.4710 C   0  0  2  0  0  0  0  0  0  0  0  0
   57.2750   20.2490  316.2920 C   0  0  0  0  0  0  0  0  0  0  0  0
   56.1730   20.3750  315.7530 O   0  0  0  0  0  0  0  0  0  0  0  0
   57.0470   20.6230  318.7700 C   0  0  0  0  0  0  0  0  0  0  0  0
   57.8910   20.9220  319.9820 C   0  0  0  0  0  0  0  0  0  0  0  0
   57.7790   21.9830  320.6060 O   0  0  0  0  0  0  0  0  0  0  0  0
   58.7660   19.9930  320.3360 N   0  0  0  0  0  0  0  0  0  0  0  0
   58.2040   19.3440  315.9060 N   0  0  0  0  0  0  0  0  0  0  0  0
   58.0910   18.3770  314.8040 C   0  0  2  0  0  0  0  0  0  0  0  0
   57.7060   19.0290  313.4660 C   0  0  0  0  0  0  0  0  0  0  0  0
   56.5780   18.8720  312.9870 O   0  0  0  0  0  0  0  0  0  0  0  0
   57.1940   17.1880  315.1770 C   0  0  0  0  0  0  0  0  0  0  0  0
   57.7730   16.3130  316.2630 C   0  0  0  0  0  0  0  0  0  0  0  0
   58.5410   15.3820  316.0020 O   0  0  0  0  0  0  0  0  0  0  0  0
   57.4250   16.6060  317.5080 N   0  0  0  0  0  0  0  0  0  0  0  0
   58.6560   19.7940  312.8880 N   0  0  0  0  0  0  0  0  0  0  0  0
   58.4850   20.5120  311.6220 C   0  0  2  0  0  0  0  0  0  0  0  0
   59.8160   20.7240  310.8930 C   0  0  0  0  0  0  0  0  0  0  0  0
   60.8820   20.6380  311.5090 O   0  0  0  0  0  0  0  0  0  0  0  0
   57.7540   21.8310  311.8480 C   0  0  0  0  0  0  0  0  0  0  0  0
   56.6600   22.3210  310.4860 S   0  0  0  0  0  0  0  0  0  0  0  0
   59.7450   21.0090  309.5800 N   0  0  0  0  0  0  0  0  0  0  0  0
   60.9010   21.2810  308.7220 C   0  0  2  0  0  0  0  0  0  0  0  0
   60.9060   22.7540  308.3050 C   0  0  0  0  0  0  0  0  0  0  0  0
   59.8370   23.3520  308.1640 O   0  0  0  0  0  0  0  0  0  0  0  0
   60.8920   20.3720  307.4870 C   0  0  0  0  0  0  0  0  0  0  0  0
   62.0550   19.3900  307.4430 C   0  0  0  0  0  0  0  0  0  0  0  0
   62.1740   18.7260  306.0790 C   0  0  0  0  0  0  0  0  0  0  0  0
   63.3320   17.7600  305.9910 C   0  0  0  0  0  0  0  0  0  0  0  0
   63.0330   16.4640  306.6610 N   0  0  0  0  0  0  0  0  0  0  0  0
   57.8690   26.0880  306.5700 N   0  0  0  0  0  0  0  0  0  0  0  0
   57.5860   27.3360  307.2880 C   0  0  2  0  0  0  0  0  0  0  0  0
   58.0070   28.5920  306.5120 C   0  0  0  0  0  0  0  0  0  0  0  0
   58.8710   28.5180  305.6370 O   0  0  0  0  0  0  0  0  0  0  0  0
   58.2000   27.3080  308.6850 C   0  0  0  0  0  0  0  0  0  0  0  0
   57.4590   26.0830  309.7980 S   0  0  0  0  0  0  0  0  0  0  0  0
  2  1  1  1
  3  2  1  0
  4  3  2  0
  5  2  1  0
  6  5  1  0
  7  3  1  0
  8  7  1  0
  9  8  1  0
 10  9  2  0
  8 11  1  6
 12 11  1  0
 13 12  1  0
 14 13  2  0
 15 13  1  0
 16  9  1  0
 17 16  1  0
 18 17  1  0
 19 18  2  0
 17 20  1  1
 21 20  1  0
 22 21  1  0
 23 22  2  0
 24 22  1  0
 26 25  1  0
 27 26  1  0
 28 27  2  0
 29 27  1  0
 30 29  1  0
 31 30  1  0
 32 31  2  0
 30 33  1  1
 34 33  1  0
 35 34  2  0
 36 34  1  0
 37 31  1  0
 38 37  1  1
 39 38  1  0
 40 39  2  0
 41 38  1  0
 42 41  1  0
 43 41  1  0
 44 39  1  0
 45 44  1  0
 46 45  1  0
 47 46  2  0
 45 48  1  6
 49 48  1  0
 50 49  1  0
 51 50  1  0
 52 51  1  0
 53 46  1  0
 54 53  1  1
 55 54  1  0
 56 55  2  0
 57 54  1  0
 58 57  1  0
 57 59  1  6
 60 58  1  0
 62 61  1  1
 63 62  1  0
 64 63  2  0
 65 62  1  0
 66 65  1  0
 67 66  2  0
 68 66  1  0
 69 67  1  0
 70 68  2  0
 71 70  1  0
 71 69  2  0
 72 71  1  0
 74 73  1  1
 75 74  1  0
 76 75  2  0
 77 74  1  0
 78 77  1  0
 80 79  1  6
 81 80  1  0
 82 81  2  0
 83 80  1  0
 84 83  1  0
 85 81  1  0
 86 85  1  0
 87 86  1  0
 88 87  2  0
 89 87  1  0
 90 89  1  0
 91 90  1  0
 92 91  2  0
 93 91  1  0
 94 93  1  0
 95 94  1  0
 96 95  2  0
 94 97  1  1
 98 97  1  0
 99 95  1  0
100 99  1  0
101100  1  0
102101  2  0
100103  1  6
104103  1  0
105104  2  0
106104  1  0
108107  1  6
109108  1  0
110109  2  0
111108  1  0
112111  1  0
113112  1  0
114113  1  0
115114  1  0
116109  1  0
117116  1  1
118117  1  0
119118  2  0
120117  1  0
121120  1  0
122120  1  0
123118  1  0
124123  1  6
125124  1  0
126125  2  0
127124  1  0
128127  1  0
127129  1  1
130128  1  0
131125  1  0
132131  1  0
133132  1  0
134133  2  0
132135  1  1
136135  1  0
137136  2  0
138136  1  0
139133  1  0
140139  1  0
141140  1  0
142141  2  0
140143  1  1
144143  1  0
145144  2  0
146144  1  0
147141  1  0
148147  1  0
149148  1  0
150149  2  0
148151  1  1
152 84  1  0
152151  1  0
153149  1  0
154153  1  0
155154  1  0
156155  2  0
154157  1  6
158157  1  0
159158  1  0
160159  1  0
161160  1  0
163162  1  6
164163  1  0
165164  2  0
166163  1  0
167 78  1  0
167166  1  0
M  END
$$$$
