
     RDKit          3D

112106  0  0  0  0  0  0  0  0999 V2000
   -3.8930  -14.5440  163.6590 N   0  0  0  0  0  0  0  0  0  0  0  0
   -3.3610  -13.3910  162.9380 C   0  0  2  0  0  0  0  0  0  0  0  0
   -2.4280  -12.5730  163.8320 C   0  0  0  0  0  0  0  0  0  0  0  0
   -2.7450  -12.3310  165.0010 O   0  0  0  0  0  0  0  0  0  0  0  0
   -4.4830  -12.4890  162.4300 C   0  0  0  0  0  0  0  0  0  0  0  0
   -5.5100  -13.1800  161.5640 C   0  0  0  0  0  0  0  0  0  0  0  0
   -5.1640  -13.7240  160.3260 C   0  0  0  0  0  0  0  0  0  0  0  0
   -6.8300  -13.2780  161.9760 C   0  0  0  0  0  0  0  0  0  0  0  0
   -6.1040  -14.3580  159.5350 C   0  0  0  0  0  0  0  0  0  0  0  0
   -7.7850  -13.9020  161.1840 C   0  0  0  0  0  0  0  0  0  0  0  0
   -7.4130  -14.4480  159.9710 C   0  0  0  0  0  0  0  0  0  0  0  0
   -8.3630  -15.0750  159.1880 O   0  0  0  0  0  0  0  0  0  0  0  0
  -15.0160  -11.5520  163.1410 N   0  0  0  0  0  0  0  0  0  0  0  0
  -13.8920  -12.1030  162.3890 C   0  0  2  0  0  0  0  0  0  0  0  0
  -12.9910  -12.8430  163.3660 C   0  0  0  0  0  0  0  0  0  0  0  0
  -12.1460  -12.2350  164.0190 O   0  0  0  0  0  0  0  0  0  0  0  0
  -13.1510  -11.0010  161.6490 C   0  0  0  0  0  0  0  0  0  0  0  0
  -10.5440  -18.3850  157.8300 N   0  0  0  0  0  0  0  0  0  0  0  0
  -10.8140  -17.2090  157.0070 C   0  0  2  0  0  0  0  0  0  0  0  0
  -11.6010  -17.5630  155.7510 C   0  0  0  0  0  0  0  0  0  0  0  0
  -12.4520  -16.7740  155.3160 O   0  0  0  0  0  0  0  0  0  0  0  0
   -9.5190  -16.4870  156.6270 C   0  0  0  0  0  0  0  0  0  0  0  0
   -9.8110  -15.0700  156.1450 C   0  0  0  0  0  0  0  0  0  0  0  0
   -8.5740  -14.2410  155.8560 C   0  0  0  0  0  0  0  0  0  0  0  0
   -7.4460  -14.7700  155.9540 O   0  0  0  0  0  0  0  0  0  0  0  0
   -8.7440  -13.0430  155.5260 O   0  0  0  0  0  0  0  0  0  0  0  0
  -11.3690  -18.7500  155.1840 N   0  0  0  0  0  0  0  0  0  0  0  0
  -12.1310  -19.1520  153.9970 C   0  0  2  0  0  0  0  0  0  0  0  0
  -13.6260  -19.2040  154.2920 C   0  0  0  0  0  0  0  0  0  0  0  0
  -14.4450  -18.7600  153.4810 O   0  0  0  0  0  0  0  0  0  0  0  0
  -11.6330  -20.5060  153.5010 C   0  0  0  0  0  0  0  0  0  0  0  0
  -12.1760  -20.9050  152.1420 C   0  0  0  0  0  0  0  0  0  0  0  0
  -11.6700  -22.2640  151.7000 C   0  0  0  0  0  0  0  0  0  0  0  0
  -12.4650  -23.2250  151.6990 O   0  0  0  0  0  0  0  0  0  0  0  0
  -10.4680  -22.3740  151.3740 O   0  0  0  0  0  0  0  0  0  0  0  0
  -15.1580  -17.4840  156.8060 N   0  0  0  0  0  0  0  0  0  0  0  0
  -15.5890  -16.1090  157.0390 C   0  0  2  0  0  0  0  0  0  0  0  0
  -15.9030  -15.3900  155.7330 C   0  0  0  0  0  0  0  0  0  0  0  0
  -16.8820  -14.6390  155.6510 O   0  0  0  0  0  0  0  0  0  0  0  0
  -14.5060  -15.3300  157.7910 C   0  0  0  0  0  0  0  0  0  0  0  0
  -14.2250  -15.6920  159.2430 C   0  0  0  0  0  0  0  0  0  0  0  0
  -13.1890  -14.7250  159.7840 C   0  0  0  0  0  0  0  0  0  0  0  0
  -15.5190  -15.6350  160.0490 C   0  0  0  0  0  0  0  0  0  0  0  0
  -15.0740  -15.5980  154.7070 N   0  0  0  0  0  0  0  0  0  0  0  0
  -15.2340  -14.8840  153.4440 C   0  0  2  0  0  0  0  0  0  0  0  0
  -16.5580  -15.1990  152.7560 C   0  0  0  0  0  0  0  0  0  0  0  0
  -17.0010  -14.4090  151.9150 O   0  0  0  0  0  0  0  0  0  0  0  0
  -14.0650  -15.2040  152.5080 C   0  0  0  0  0  0  0  0  0  0  0  0
  -17.1850  -16.3340  153.0820 N   0  0  0  0  0  0  0  0  0  0  0  0
  -18.5090  -16.6820  152.5770 C   0  0  2  0  0  0  0  0  0  0  0  0
  -19.6350  -15.9060  153.2540 C   0  0  0  0  0  0  0  0  0  0  0  0
  -20.7660  -15.9480  152.7620 O   0  0  0  0  0  0  0  0  0  0  0  0
  -18.7720  -18.1830  152.7470 C   0  0  0  0  0  0  0  0  0  0  0  0
  -17.7960  -19.0870  152.0270 C   0  0  0  0  0  0  0  0  0  0  0  0
  -18.1750  -20.5510  152.1900 C   0  0  0  0  0  0  0  0  0  0  0  0
  -17.0260  -21.4480  151.7510 C   0  0  0  0  0  0  0  0  0  0  0  0
  -17.3960  -22.8930  151.7130 N   0  0  0  0  0  0  0  0  0  0  0  0
  -19.3590  -15.2200  154.3770 N   0  0  0  0  0  0  0  0  0  0  0  0
  -20.3450  -14.4510  155.1300 C   0  0  2  0  0  0  0  0  0  0  0  0
  -20.1870  -12.9660  154.8140 C   0  0  0  0  0  0  0  0  0  0  0  0
  -19.3100  -12.3050  155.3890 O   0  0  0  0  0  0  0  0  0  0  0  0
  -20.1850  -14.7070  156.6350 C   0  0  0  0  0  0  0  0  0  0  0  0
  -21.3150  -14.0980  157.4720 C   0  0  0  0  0  0  0  0  0  0  0  0
  -22.1490  -13.3470  156.9240 O   0  0  0  0  0  0  0  0  0  0  0  0
  -21.3710  -14.3820  158.6890 O   0  0  0  0  0  0  0  0  0  0  0  0
  -19.4810  -10.3290  157.4710 N   0  0  0  0  0  0  0  0  0  0  0  0
  -18.1340  -10.2250  158.0290 C   0  0  2  0  0  0  0  0  0  0  0  0
  -17.2800   -9.2560  157.2220 C   0  0  0  0  0  0  0  0  0  0  0  0
  -16.5440   -8.4490  157.7970 O   0  0  0  0  0  0  0  0  0  0  0  0
  -17.4950  -11.6260  158.1090 C   0  0  2  0  0  0  0  0  0  0  0  0
  -18.2800  -12.5150  159.0800 C   0  0  0  0  0  0  0  0  0  0  0  0
  -16.0030  -11.5440  158.4630 C   0  0  0  0  0  0  0  0  0  0  0  0
  -18.3860  -11.9510  160.4910 C   0  0  0  0  0  0  0  0  0  0  0  0
  -17.3830   -9.2870  155.8810 N   0  0  0  0  0  0  0  0  0  0  0  0
  -16.6820   -8.3000  155.0560 C   0  0  2  0  0  0  0  0  0  0  0  0
  -17.1110   -6.8810  155.4110 C   0  0  0  0  0  0  0  0  0  0  0  0
  -16.2850   -5.9590  155.4450 O   0  0  0  0  0  0  0  0  0  0  0  0
  -16.9340   -8.5720  153.5620 C   0  0  0  0  0  0  0  0  0  0  0  0
  -15.4350   -5.9990  158.6650 N   0  0  0  0  0  0  0  0  0  0  0  0
  -14.0250   -5.6700  158.4930 C   0  0  2  0  0  0  0  0  0  0  0  0
  -13.8090   -4.4110  157.6630 C   0  0  0  0  0  0  0  0  0  0  0  0
  -12.7050   -3.8500  157.6980 O   0  0  0  0  0  0  0  0  0  0  0  0
  -13.2660   -6.8390  157.8640 C   0  0  0  0  0  0  0  0  0  0  0  0
  -13.1260   -8.0600  158.7660 C   0  0  0  0  0  0  0  0  0  0  0  0
  -12.4270   -7.6410  160.3850 S   0  0  0  0  0  0  0  0  0  0  0  0
  -10.7510   -7.1520  159.9310 C   0  0  0  0  0  0  0  0  0  0  0  0
  -14.8180   -3.9480  156.9110 N   0  0  0  0  0  0  0  0  0  0  0  0
  -14.6740   -2.6470  156.2630 C   0  0  2  0  0  0  0  0  0  0  0  0
  -14.8260   -1.5240  157.2750 C   0  0  0  0  0  0  0  0  0  0  0  0
  -14.0960   -0.5270  157.2220 O   0  0  0  0  0  0  0  0  0  0  0  0
  -15.6730   -2.4760  155.1150 C   0  0  0  0  0  0  0  0  0  0  0  0
  -15.4920   -1.1360  154.4080 C   0  0  0  0  0  0  0  0  0  0  0  0
  -16.3110   -1.0010  153.1270 C   0  0  0  0  0  0  0  0  0  0  0  0
  -16.6850   -2.0360  152.5330 O   0  0  0  0  0  0  0  0  0  0  0  0
  -16.5450    0.1530  152.6990 O   0  0  0  0  0  0  0  0  0  0  0  0
  -15.7520   -1.6670  158.2190 N   0  0  0  0  0  0  0  0  0  0  0  0
  -15.8340   -0.6860  159.2950 C   0  0  2  0  0  0  0  0  0  0  0  0
  -14.6050   -0.7510  160.1870 C   0  0  0  0  0  0  0  0  0  0  0  0
  -14.1130    0.2850  160.6500 O   0  0  0  0  0  0  0  0  0  0  0  0
  -17.1180   -0.8900  160.1060 C   0  0  0  0  0  0  0  0  0  0  0  0
  -18.3470   -0.3480  159.3950 C   0  0  0  0  0  0  0  0  0  0  0  0
  -18.3870    0.8140  158.9950 O   0  0  0  0  0  0  0  0  0  0  0  0
  -19.3460   -1.2010  159.2130 N   0  0  0  0  0  0  0  0  0  0  0  0
  -11.6180   -1.4870  159.1500 N   0  0  0  0  0  0  0  0  0  0  0  0
  -10.5650   -0.8500  158.3640 C   0  0  2  0  0  0  0  0  0  0  0  0
  -10.5490    0.6550  158.5560 C   0  0  0  0  0  0  0  0  0  0  0  0
   -9.5000    1.2910  158.4090 O   0  0  0  0  0  0  0  0  0  0  0  0
  -10.7600   -1.1530  156.8680 C   0  0  0  0  0  0  0  0  0  0  0  0
   -9.6720   -0.5940  155.9610 C   0  0  0  0  0  0  0  0  0  0  0  0
   -8.3590   -1.3090  156.1220 C   0  0  0  0  0  0  0  0  0  0  0  0
   -8.3160   -2.4250  156.6360 O   0  0  0  0  0  0  0  0  0  0  0  0
   -7.2620   -0.6660  155.6830 N   0  0  0  0  0  0  0  0  0  0  0  0
  2  1  1  1
  3  2  1  0
  4  3  2  0
  5  2  1  0
  6  5  1  0
  7  6  2  0
  8  6  1  0
  9  7  1  0
 10  8  2  0
 11 10  1  0
 11  9  2  0
 12 11  1  0
 14 13  1  0
 15 14  1  0
 16 15  2  0
 14 17  1  1
 19 18  1  6
 20 19  1  0
 21 20  2  0
 22 19  1  0
 23 22  1  0
 24 23  1  0
 25 24  2  0
 26 24  1  0
 27 20  1  0
 28 27  1  0
 29 28  1  0
 30 29  2  0
 28 31  1  1
 32 31  1  0
 33 32  1  0
 34 33  2  0
 35 33  1  0
 37 36  1  6
 38 37  1  0
 39 38  2  0
 40 37  1  0
 41 40  1  0
 42 41  1  0
 43 41  1  0
 44 38  1  0
 45 44  1  0
 46 45  1  0
 47 46  2  0
 45 48  1  6
 49 46  1  0
 50 49  1  0
 51 50  1  0
 52 51  2  0
 50 53  1  1
 54 53  1  0
 55 54  1  0
 56 55  1  0
 57 56  1  0
 58 51  1  0
 59 58  1  0
 60 59  1  0
 61 60  2  0
 59 62  1  1
 63 62  1  0
 64 63  2  0
 65 63  1  0
 67 66  1  6
 68 67  1  0
 69 68  2  0
 70 67  1  0
 71 70  1  0
 70 72  1  1
 73 71  1  0
 74 68  1  0
 75 74  1  0
 76 75  1  0
 77 76  2  0
 75 78  1  6
 80 79  1  6
 81 80  1  0
 82 81  2  0
 83 80  1  0
 84 83  1  0
 85 84  1  0
 86 85  1  0
 87 81  1  0
 88 87  1  0
 89 88  1  0
 90 89  2  0
 88 91  1  6
 92 91  1  0
 93 92  1  0
 94 93  2  0
 95 93  1  0
 96 89  1  0
 97 96  1  0
 98 97  1  0
 99 98  2  0
 97100  1  1
101100  1  0
102101  2  0
103101  1  0
105104  1  1
106105  1  0
107106  2  0
108105  1  0
109108  1  0
110109  1  0
111110  2  0
112110  1  0
M  END
$$$$
