
     RDKit          3D

 99 97  0  0  0  0  0  0  0  0999 V2000
   22.7880   22.2440   19.8130 N   0  0  0  0  0  0  0  0  0  0  0  0
   22.6780   20.8610   19.4010 C   0  0  2  0  0  0  0  0  0  0  0  0
   21.1920   20.6010   19.2860 C   0  0  0  0  0  0  0  0  0  0  0  0
   20.4180   21.1210   20.1000 O   0  0  0  0  0  0  0  0  0  0  0  0
   23.3150   19.9580   20.4670 C   0  0  2  0  0  0  0  0  0  0  0  0
   24.6110   20.4830   20.8060 O   0  0  0  0  0  0  0  0  0  0  0  0
   23.4420   18.5250   19.9850 C   0  0  0  0  0  0  0  0  0  0  0  0
   20.7970   19.8470   18.2600 N   0  0  0  0  0  0  0  0  0  0  0  0
   19.3920   19.6630   17.9230 C   0  0  2  0  0  0  0  0  0  0  0  0
   19.1270   18.2010   17.6730 C   0  0  0  0  0  0  0  0  0  0  0  0
   19.9870   17.5030   17.1570 O   0  0  0  0  0  0  0  0  0  0  0  0
   19.0200   20.4580   16.6630 C   0  0  0  0  0  0  0  0  0  0  0  0
   19.0710   21.9250   16.8300 C   0  0  0  0  0  0  0  0  0  0  0  0
   20.1410   22.7350   16.6070 C   0  0  0  0  0  0  0  0  0  0  0  0
   18.0310   22.7630   17.2890 C   0  0  0  0  0  0  0  0  0  0  0  0
   19.8290   24.0260   16.9150 N   0  0  0  0  0  0  0  0  0  0  0  0
   18.5320   24.0650   17.3300 C   0  0  0  0  0  0  0  0  0  0  0  0
   16.7220   22.5360   17.6900 C   0  0  0  0  0  0  0  0  0  0  0  0
   17.7850   25.1200   17.7460 C   0  0  0  0  0  0  0  0  0  0  0  0
   15.9640   23.5880   18.0750 C   0  0  0  0  0  0  0  0  0  0  0  0
   16.4920   24.8660   18.1070 C   0  0  0  0  0  0  0  0  0  0  0  0
   17.9220   17.7410   18.0030 N   0  0  0  0  0  0  0  0  0  0  0  0
   17.6030   16.3190   18.0440 C   0  0  2  0  0  0  0  0  0  0  0  0
   16.3160   16.0640   17.2800 C   0  0  0  0  0  0  0  0  0  0  0  0
   15.2910   16.6540   17.5510 O   0  0  0  0  0  0  0  0  0  0  0  0
   17.5190   15.8870   19.5320 C   0  0  0  0  0  0  0  0  0  0  0  0
   16.9640   14.5030   19.8820 C   0  0  0  0  0  0  0  0  0  0  0  0
   15.4920   14.5480   20.2340 C   0  0  0  0  0  0  0  0  0  0  0  0
   15.1730   13.6790   21.4220 C   0  0  0  0  0  0  0  0  0  0  0  0
   13.6950   13.6780   21.6360 N   0  0  0  0  0  0  0  0  0  0  0  0
   17.2500    5.0350    7.7010 N   0  0  0  0  0  0  0  0  0  0  0  0
   17.0660    4.3850    9.0090 C   0  0  2  0  0  0  0  0  0  0  0  0
   17.5490    5.3420   10.0790 C   0  0  0  0  0  0  0  0  0  0  0  0
   16.7740    5.7590   10.9410 O   0  0  0  0  0  0  0  0  0  0  0  0
   17.8850    3.0900    9.1540 C   0  0  0  0  0  0  0  0  0  0  0  0
   17.6790    1.9960    8.1170 C   0  0  0  0  0  0  0  0  0  0  0  0
   18.4660    0.4430    8.6070 S   0  0  0  0  0  0  0  0  0  0  0  0
   20.2190    0.6990    8.3110 C   0  0  0  0  0  0  0  0  0  0  0  0
   18.8360    5.6910   10.0030 N   0  0  0  0  0  0  0  0  0  0  0  0
   19.4830    6.5070   11.0230 C   0  0  2  0  0  0  0  0  0  0  0  0
   18.7020    7.7790   11.3060 C   0  0  0  0  0  0  0  0  0  0  0  0
   17.8520    8.1820   10.5360 O   0  0  0  0  0  0  0  0  0  0  0  0
   20.9200    6.8450   10.6320 C   0  0  0  0  0  0  0  0  0  0  0  0
   19.0130    8.3960   12.4350 N   0  0  0  0  0  0  0  0  0  0  0  0
   18.4130    9.6400   12.8540 C   0  0  2  0  0  0  0  0  0  0  0  0
   19.5940   10.5800   13.0170 C   0  0  0  0  0  0  0  0  0  0  0  0
   20.4410   10.3450   13.8720 O   0  0  0  0  0  0  0  0  0  0  0  0
   17.6870    9.4510   14.1860 C   0  0  0  0  0  0  0  0  0  0  0  0
   17.5350   10.7480   14.9590 C   0  0  0  0  0  0  0  0  0  0  0  0
   18.6440   10.9630   15.9870 C   0  0  0  0  0  0  0  0  0  0  0  0
   18.6350   12.3890   16.5340 C   0  0  0  0  0  0  0  0  0  0  0  0
   19.7600   12.6460   17.4740 N   0  0  0  0  0  0  0  0  0  0  0  0
   21.2750   14.1360   14.1500 N   0  0  0  0  0  0  0  0  0  0  0  0
   21.1260   15.3390   14.9240 C   0  0  2  0  0  0  0  0  0  0  0  0
   21.5780   16.5170   14.0540 C   0  0  0  0  0  0  0  0  0  0  0  0
   21.7720   16.3510   12.8560 O   0  0  0  0  0  0  0  0  0  0  0  0
   22.0030   15.2330   16.1670 C   0  0  0  0  0  0  0  0  0  0  0  0
   23.4750   15.3300   15.8360 C   0  0  0  0  0  0  0  0  0  0  0  0
   23.8850   14.9230   14.7520 O   0  0  0  0  0  0  0  0  0  0  0  0
   24.2690   15.8880   16.7480 N   0  0  0  0  0  0  0  0  0  0  0  0
   25.5090   14.5270   13.0660 N   0  0  0  0  0  0  0  0  0  0  0  0
   26.1330   13.3400   13.6520 C   0  0  2  0  0  0  0  0  0  0  0  0
   25.1780   12.1530   13.5810 C   0  0  0  0  0  0  0  0  0  0  0  0
   24.8430   11.5560   14.5820 O   0  0  0  0  0  0  0  0  0  0  0  0
   26.5110   13.6490   15.1110 C   0  0  0  0  0  0  0  0  0  0  0  0
   27.8460   13.1000   15.5940 C   0  0  0  0  0  0  0  0  0  0  0  0
   28.1540   13.4430   17.0520 C   0  0  0  0  0  0  0  0  0  0  0  0
   28.4490   12.5300   17.8680 O   0  0  0  0  0  0  0  0  0  0  0  0
   28.1120   14.6430   17.3840 O   0  0  0  0  0  0  0  0  0  0  0  0
   24.7520   11.8020   12.3810 N   0  0  0  0  0  0  0  0  0  0  0  0
   23.9840   10.5750   12.1750 C   0  0  2  0  0  0  0  0  0  0  0  0
   24.8650    9.3160   12.3180 C   0  0  0  0  0  0  0  0  0  0  0  0
   26.1020    9.3890   12.2980 O   0  0  0  0  0  0  0  0  0  0  0  0
   23.3460   10.5720   10.7850 C   0  0  0  0  0  0  0  0  0  0  0  0
   22.5820    9.3960   10.5680 O   0  0  0  0  0  0  0  0  0  0  0  0
   24.2050    8.1640   12.4400 N   0  0  0  0  0  0  0  0  0  0  0  0
   24.8980    6.8960   12.6090 C   0  0  2  0  0  0  0  0  0  0  0  0
   25.7360    6.5880   11.3810 C   0  0  0  0  0  0  0  0  0  0  0  0
   26.9660    6.5490   11.4350 O   0  0  0  0  0  0  0  0  0  0  0  0
   23.9110    5.7300   12.8330 C   0  0  2  0  0  0  0  0  0  0  0  0
   23.1200    5.9950   13.9890 O   0  0  0  0  0  0  0  0  0  0  0  0
   24.6570    4.4110   13.0400 C   0  0  0  0  0  0  0  0  0  0  0  0
   25.0650    6.3920   10.2530 N   0  0  0  0  0  0  0  0  0  0  0  0
   25.7310    5.7950    9.1050 C   0  0  2  0  0  0  0  0  0  0  0  0
   26.7410    6.7280    8.4380 C   0  0  0  0  0  0  0  0  0  0  0  0
   27.7620    6.2520    7.9570 O   0  0  0  0  0  0  0  0  0  0  0  0
   24.6990    5.2010    8.1430 C   0  0  0  0  0  0  0  0  0  0  0  0
   23.8460    4.1450    8.8040 C   0  0  0  0  0  0  0  0  0  0  0  0
   24.3970    2.9270    9.2140 C   0  0  0  0  0  0  0  0  0  0  0  0
   22.5250    4.4080    9.1080 C   0  0  0  0  0  0  0  0  0  0  0  0
   23.6230    1.9820    9.8680 C   0  0  0  0  0  0  0  0  0  0  0  0
   21.7430    3.4690    9.7620 C   0  0  0  0  0  0  0  0  0  0  0  0
   22.2930    2.2550   10.1430 C   0  0  0  0  0  0  0  0  0  0  0  0
   18.4570   19.3430   21.9640 N   0  0  0  0  0  0  0  0  0  0  0  0
   19.0890   18.3510   22.8330 C   0  0  2  0  0  0  0  0  0  0  0  0
   19.9900   19.0320   23.8830 C   0  0  0  0  0  0  0  0  0  0  0  0
   19.6990   20.1240   24.3820 O   0  0  0  0  0  0  0  0  0  0  0  0
   19.9200   17.3800   22.0090 C   0  0  0  0  0  0  0  0  0  0  0  0
   21.0470   18.4860   24.2480 O   0  0  0  0  0  0  0  0  0  0  0  0
  2  1  1  1
  3  2  1  0
  4  3  2  0
  5  2  1  0
  6  5  1  0
  5  7  1  6
  8  3  1  0
  9  8  1  0
 10  9  1  0
 11 10  2  0
  9 12  1  6
 13 12  1  0
 14 13  2  0
 15 13  1  0
 16 14  1  0
 17 16  1  0
 17 15  2  0
 18 15  1  0
 19 17  1  0
 20 18  2  0
 21 20  1  0
 21 19  2  0
 22 10  1  0
 23 22  1  0
 24 23  1  0
 25 24  2  0
 23 26  1  1
 27 26  1  0
 28 27  1  0
 29 28  1  0
 30 29  1  0
 32 31  1  6
 33 32  1  0
 34 33  2  0
 35 32  1  0
 36 35  1  0
 37 36  1  0
 38 37  1  0
 39 33  1  0
 40 39  1  0
 41 40  1  0
 42 41  2  0
 40 43  1  6
 44 41  1  0
 45 44  1  0
 46 45  1  0
 47 46  2  0
 45 48  1  1
 49 48  1  0
 50 49  1  0
 51 50  1  0
 52 51  1  0
 54 53  1  6
 55 54  1  0
 56 55  2  0
 57 54  1  0
 58 57  1  0
 59 58  2  0
 60 58  1  0
 62 61  1  1
 63 62  1  0
 64 63  2  0
 65 62  1  0
 66 65  1  0
 67 66  1  0
 68 67  2  0
 69 67  1  0
 70 63  1  0
 71 70  1  0
 72 71  1  0
 73 72  2  0
 71 74  1  6
 75 74  1  0
 76 72  1  0
 77 76  1  6
 78 77  1  0
 79 78  2  0
 80 77  1  0
 81 80  1  0
 80 82  1  1
 83 78  1  0
 84 83  1  0
 85 84  1  0
 86 85  2  0
 84 87  1  6
 88 87  1  0
 89 88  2  0
 90 88  1  0
 91 89  1  0
 92 90  2  0
 93 92  1  0
 93 91  2  0
 95 94  1  0
 96 95  1  0
 97 96  2  0
 95 98  1  6
 99 96  1  0
M  END
$$$$
