
     RDKit          3D

187182  0  0  0  0  0  0  0  0999 V2000
  105.7900  -19.5100 1164.9820 N   0  0  0  0  0  0  0  0  0  0  0  0
  106.6230  -19.6900 1166.1680 C   0  0  2  0  0  0  0  0  0  0  0  0
  107.3380  -18.4000 1166.5750 C   0  0  0  0  0  0  0  0  0  0  0  0
  107.2300  -17.9630 1167.7220 O   0  0  0  0  0  0  0  0  0  0  0  0
  107.6440  -20.7980 1165.9020 C   0  0  0  0  0  0  0  0  0  0  0  0
  108.4450  -21.1920 1167.1000 C   0  0  0  0  0  0  0  0  0  0  0  0
  107.8740  -21.7260 1168.2330 N   0  0  0  0  0  0  0  0  0  0  0  0
  109.7760  -21.1280 1167.3420 C   0  0  0  0  0  0  0  0  0  0  0  0
  108.8180  -21.9810 1169.1210 C   0  0  0  0  0  0  0  0  0  0  0  0
  109.9810  -21.6250 1168.6060 N   0  0  0  0  0  0  0  0  0  0  0  0
  106.8110  -15.7440 1169.7480 N   0  0  0  0  0  0  0  0  0  0  0  0
  107.9750  -15.4430 1170.5680 C   0  0  2  0  0  0  0  0  0  0  0  0
  108.1840  -13.9350 1170.6680 C   0  0  0  0  0  0  0  0  0  0  0  0
  108.2840  -13.3950 1171.7690 O   0  0  0  0  0  0  0  0  0  0  0  0
  109.2540  -16.1070 1170.0140 C   0  0  2  0  0  0  0  0  0  0  0  0
  109.2160  -17.6220 1170.2250 C   0  0  0  0  0  0  0  0  0  0  0  0
  110.4850  -15.5420 1170.6940 C   0  0  0  0  0  0  0  0  0  0  0  0
  110.4620  -18.3300 1169.7370 C   0  0  0  0  0  0  0  0  0  0  0  0
  113.6970  -41.0260 1166.6210 N   0  0  0  0  0  0  0  0  0  0  0  0
  114.2130  -39.7400 1167.0770 C   0  0  2  0  0  0  0  0  0  0  0  0
  113.2730  -38.6250 1166.6420 C   0  0  0  0  0  0  0  0  0  0  0  0
  113.3650  -37.4950 1167.1210 O   0  0  0  0  0  0  0  0  0  0  0  0
  115.6100  -39.4980 1166.5430 C   0  0  0  0  0  0  0  0  0  0  0  0
  112.3820  -38.9410 1165.7110 N   0  0  0  0  0  0  0  0  0  0  0  0
  111.3740  -37.9820 1165.2970 C   0  0  2  0  0  0  0  0  0  0  0  0
  110.0710  -38.2230 1166.0510 C   0  0  0  0  0  0  0  0  0  0  0  0
  109.6190  -39.3610 1166.1810 O   0  0  0  0  0  0  0  0  0  0  0  0
  111.1370  -38.0480 1163.7920 C   0  0  0  0  0  0  0  0  0  0  0  0
  110.0900  -37.0600 1163.3330 C   0  0  0  0  0  0  0  0  0  0  0  0
  110.4990  -35.6490 1163.7170 C   0  0  0  0  0  0  0  0  0  0  0  0
  109.5070  -34.6330 1163.1980 C   0  0  0  0  0  0  0  0  0  0  0  0
  109.7820  -33.2650 1163.7080 N   0  0  0  0  0  0  0  0  0  0  0  0
  109.4840  -37.1430 1166.5570 N   0  0  0  0  0  0  0  0  0  0  0  0
  108.2520  -37.2220 1167.3300 C   0  0  2  0  0  0  0  0  0  0  0  0
  107.0730  -37.6730 1166.4780 C   0  0  0  0  0  0  0  0  0  0  0  0
  107.0470  -37.4600 1165.2660 O   0  0  0  0  0  0  0  0  0  0  0  0
  107.9420  -35.8690 1167.9750 C   0  0  0  0  0  0  0  0  0  0  0  0
  108.9040  -35.5200 1169.0920 C   0  0  0  0  0  0  0  0  0  0  0  0
  109.1310  -34.3450 1169.3880 O   0  0  0  0  0  0  0  0  0  0  0  0
  109.4630  -36.5410 1169.7320 N   0  0  0  0  0  0  0  0  0  0  0  0
  107.3960  -40.4360 1181.0680 N   0  0  0  0  0  0  0  0  0  0  0  0
  108.5300  -39.7530 1180.4720 C   0  0  2  0  0  0  0  0  0  0  0  0
  109.8040  -40.2740 1181.1080 C   0  0  0  0  0  0  0  0  0  0  0  0
  109.8540  -40.5450 1182.3080 O   0  0  0  0  0  0  0  0  0  0  0  0
  108.4080  -38.2370 1180.6470 C   0  0  0  0  0  0  0  0  0  0  0  0
  109.6330  -37.5830 1180.3660 O   0  0  0  0  0  0  0  0  0  0  0  0
  110.8260  -40.4150 1180.2770 N   0  0  0  0  0  0  0  0  0  0  0  0
  112.1190  -40.9150 1180.6990 C   0  0  2  0  0  0  0  0  0  0  0  0
  112.8740  -39.9170 1181.5880 C   0  0  0  0  0  0  0  0  0  0  0  0
  113.5700  -40.3280 1182.5160 O   0  0  0  0  0  0  0  0  0  0  0  0
  112.9380  -41.3010 1179.4660 C   0  0  0  0  0  0  0  0  0  0  0  0
  113.0140  -40.2250 1178.5510 O   0  0  0  0  0  0  0  0  0  0  0  0
  112.7320  -38.6190 1181.3190 N   0  0  0  0  0  0  0  0  0  0  0  0
  113.4130  -37.5970 1182.1060 C   0  0  0  0  0  0  0  0  0  0  0  0
  113.6220  -36.2830 1181.3740 C   0  0  0  0  0  0  0  0  0  0  0  0
  113.2490  -36.1570 1180.2130 O   0  0  0  0  0  0  0  0  0  0  0  0
  114.1910  -35.2930 1182.0590 N   0  0  0  0  0  0  0  0  0  0  0  0
  114.4290  -33.9920 1181.4540 C   0  0  0  0  0  0  0  0  0  0  0  0
  113.9180  -32.8280 1182.2860 C   0  0  0  0  0  0  0  0  0  0  0  0
  113.6530  -32.9690 1183.4810 O   0  0  0  0  0  0  0  0  0  0  0  0
  113.7800  -31.6700 1181.6470 N   0  0  0  0  0  0  0  0  0  0  0  0
  113.2410  -30.4930 1182.3120 C   0  0  2  0  0  0  0  0  0  0  0  0
  111.8110  -30.7010 1182.7550 C   0  0  0  0  0  0  0  0  0  0  0  0
  111.0480  -31.4240 1182.1140 O   0  0  0  0  0  0  0  0  0  0  0  0
  113.3300  -29.2610 1181.4100 C   0  0  0  0  0  0  0  0  0  0  0  0
  114.7590  -28.8330 1181.1590 C   0  0  0  0  0  0  0  0  0  0  0  0
  115.6580  -29.7000 1181.2050 O   0  0  0  0  0  0  0  0  0  0  0  0
  114.9900  -27.6250 1180.9460 O   0  0  0  0  0  0  0  0  0  0  0  0
  111.4740  -30.0690 1183.8760 N   0  0  0  0  0  0  0  0  0  0  0  0
  110.1920  -30.2670 1184.5400 C   0  0  2  0  0  0  0  0  0  0  0  0
  109.0460  -29.9680 1183.5960 C   0  0  0  0  0  0  0  0  0  0  0  0
  107.9770  -30.5600 1183.6990 O   0  0  0  0  0  0  0  0  0  0  0  0
  110.0880  -29.3880 1185.7840 C   0  0  0  0  0  0  0  0  0  0  0  0
  111.0230  -29.7490 1186.9400 C   0  0  0  0  0  0  0  0  0  0  0  0
  111.1620  -28.5930 1187.9230 C   0  0  0  0  0  0  0  0  0  0  0  0
  110.5520  -31.0160 1187.6320 C   0  0  0  0  0  0  0  0  0  0  0  0
  109.2590  -29.0060 1182.7090 N   0  0  0  0  0  0  0  0  0  0  0  0
  108.2450  -28.6510 1181.7280 C   0  0  2  0  0  0  0  0  0  0  0  0
  107.9710  -29.7540 1180.7030 C   0  0  0  0  0  0  0  0  0  0  0  0
  106.8260  -29.9820 1180.3250 O   0  0  0  0  0  0  0  0  0  0  0  0
  108.6390  -27.3630 1181.0120 C   0  0  0  0  0  0  0  0  0  0  0  0
  109.3320  -26.3620 1181.9170 C   0  0  0  0  0  0  0  0  0  0  0  0
  109.9570  -25.2320 1181.1420 C   0  0  0  0  0  0  0  0  0  0  0  0
  110.5090  -25.4890 1180.0520 O   0  0  0  0  0  0  0  0  0  0  0  0
  109.8780  -24.0810 1181.6170 O   0  0  0  0  0  0  0  0  0  0  0  0
  109.0200  -30.3960 1180.2100 N   0  0  0  0  0  0  0  0  0  0  0  0
  108.8520  -31.4670 1179.2310 C   0  0  2  0  0  0  0  0  0  0  0  0
  108.3510  -32.7790 1179.8320 C   0  0  0  0  0  0  0  0  0  0  0  0
  107.4890  -33.4500 1179.2640 O   0  0  0  0  0  0  0  0  0  0  0  0
  110.1630  -31.7240 1178.4850 C   0  0  0  0  0  0  0  0  0  0  0  0
  110.0120  -32.8660 1177.4910 C   0  0  0  0  0  0  0  0  0  0  0  0
  110.5870  -30.4560 1177.7790 C   0  0  0  0  0  0  0  0  0  0  0  0
  108.9010  -33.1420 1180.9820 N   0  0  0  0  0  0  0  0  0  0  0  0
  108.5510  -34.3970 1181.6320 C   0  0  2  0  0  0  0  0  0  0  0  0
  107.0910  -34.4080 1182.0890 C   0  0  0  0  0  0  0  0  0  0  0  0
  106.4360  -35.4550 1182.0920 O   0  0  0  0  0  0  0  0  0  0  0  0
  109.4660  -34.6570 1182.8300 C   0  0  2  0  0  0  0  0  0  0  0  0
  109.3250  -33.5940 1183.7820 O   0  0  0  0  0  0  0  0  0  0  0  0
  110.8980  -34.7190 1182.3690 C   0  0  0  0  0  0  0  0  0  0  0  0
  110.0120  -21.6700 1175.7480 N   0  0  0  0  0  0  0  0  0  0  0  0
  110.7310  -21.5540 1174.4700 C   0  0  2  0  0  0  0  0  0  0  0  0
  112.2440  -21.6020 1174.5980 C   0  0  0  0  0  0  0  0  0  0  0  0
  112.9520  -21.2430 1173.6560 O   0  0  0  0  0  0  0  0  0  0  0  0
  110.3750  -20.2580 1173.7500 C   0  0  0  0  0  0  0  0  0  0  0  0
  108.9960  -20.2230 1173.2680 C   0  0  0  0  0  0  0  0  0  0  0  0
  108.4430  -21.0170 1172.3110 C   0  0  0  0  0  0  0  0  0  0  0  0
  107.9720  -19.3300 1173.6990 C   0  0  0  0  0  0  0  0  0  0  0  0
  107.1260  -20.6790 1172.1250 N   0  0  0  0  0  0  0  0  0  0  0  0
  106.8130  -19.6430 1172.9660 C   0  0  0  0  0  0  0  0  0  0  0  0
  107.9210  -18.2960 1174.6360 C   0  0  0  0  0  0  0  0  0  0  0  0
  105.6150  -18.9620 1173.1400 C   0  0  0  0  0  0  0  0  0  0  0  0
  106.7350  -17.6220 1174.8090 C   0  0  0  0  0  0  0  0  0  0  0  0
  105.5960  -17.9550 1174.0640 C   0  0  0  0  0  0  0  0  0  0  0  0
  112.7280  -22.0550 1175.7490 N   0  0  0  0  0  0  0  0  0  0  0  0
  114.1500  -22.0210 1176.0680 C   0  0  2  0  0  0  0  0  0  0  0  0
  114.6680  -20.5990 1175.9170 C   0  0  0  0  0  0  0  0  0  0  0  0
  115.7520  -20.3690 1175.3850 O   0  0  0  0  0  0  0  0  0  0  0  0
  114.9370  -22.9840 1175.1850 C   0  0  0  0  0  0  0  0  0  0  0  0
  114.5330  -24.4240 1175.4000 C   0  0  0  0  0  0  0  0  0  0  0  0
  114.6420  -24.8220 1176.8540 C   0  0  0  0  0  0  0  0  0  0  0  0
  113.6420  -24.8960 1177.5670 O   0  0  0  0  0  0  0  0  0  0  0  0
  115.8640  -25.0720 1177.3070 N   0  0  0  0  0  0  0  0  0  0  0  0
  106.9660  -40.3490 1171.7390 N   0  0  0  0  0  0  0  0  0  0  0  0
  108.3090  -40.7000 1171.2950 C   0  0  2  0  0  0  0  0  0  0  0  0
  108.5350  -42.1910 1171.5060 C   0  0  0  0  0  0  0  0  0  0  0  0
  108.0870  -42.7570 1172.5010 O   0  0  0  0  0  0  0  0  0  0  0  0
  109.3820  -39.8970 1172.0500 C   0  0  2  0  0  0  0  0  0  0  0  0
  109.1590  -38.4970 1171.8470 O   0  0  0  0  0  0  0  0  0  0  0  0
  110.7770  -40.2610 1171.5610 C   0  0  0  0  0  0  0  0  0  0  0  0
  106.4760  -42.9970 1174.8830 N   0  0  0  0  0  0  0  0  0  0  0  0
  106.5460  -42.0760 1176.0100 C   0  0  2  0  0  0  0  0  0  0  0  0
  106.2130  -40.6630 1175.5340 C   0  0  0  0  0  0  0  0  0  0  0  0
  106.5180  -40.3010 1174.3990 O   0  0  0  0  0  0  0  0  0  0  0  0
  107.9410  -42.1160 1176.6580 C   0  0  0  0  0  0  0  0  0  0  0  0
  108.3690  -43.4960 1177.1680 C   0  0  0  0  0  0  0  0  0  0  0  0
  109.8200  -43.5160 1177.6490 C   0  0  0  0  0  0  0  0  0  0  0  0
  110.2210  -44.8360 1178.1360 N   0  0  0  0  0  0  0  0  0  0  0  0
  110.1190  -45.2280 1179.4020 C   0  0  0  0  0  0  0  0  0  0  0  0
  109.6310  -44.4000 1180.3140 N   0  0  0  0  0  0  0  0  0  0  0  0
  110.5050  -46.4470 1179.7580 N   0  0  0  0  0  0  0  0  0  0  0  0
  106.4470  -36.7050 1174.9370 N   0  0  0  0  0  0  0  0  0  0  0  0
  107.5630  -35.8010 1174.7220 C   0  0  0  0  0  0  0  0  0  0  0  0
  107.1280  -34.4000 1174.3290 C   0  0  0  0  0  0  0  0  0  0  0  0
  106.4130  -33.7190 1175.0690 O   0  0  0  0  0  0  0  0  0  0  0  0
  107.5380  -33.9850 1173.1350 N   0  0  0  0  0  0  0  0  0  0  0  0
  107.1660  -32.6900 1172.5980 C   0  0  0  0  0  0  0  0  0  0  0  0
  107.7980  -31.5050 1173.3020 C   0  0  0  0  0  0  0  0  0  0  0  0
  107.1040  -30.5730 1173.7020 O   0  0  0  0  0  0  0  0  0  0  0  0
  109.1160  -31.5460 1173.4740 N   0  0  0  0  0  0  0  0  0  0  0  0
  109.8360  -30.4250 1174.0560 C   0  0  0  0  0  0  0  0  0  0  0  0
  109.7600  -29.1660 1173.2030 C   0  0  0  0  0  0  0  0  0  0  0  0
  109.5170  -28.0700 1173.7110 O   0  0  0  0  0  0  0  0  0  0  0  0
  109.9730  -29.3250 1171.9000 N   0  0  0  0  0  0  0  0  0  0  0  0
  109.8960  -28.2090 1170.9620 C   0  0  2  0  0  0  0  0  0  0  0  0
  108.4460  -27.7760 1170.8110 C   0  0  0  0  0  0  0  0  0  0  0  0
  107.5320  -28.5930 1170.9160 O   0  0  0  0  0  0  0  0  0  0  0  0
  110.4880  -28.6060 1169.6040 C   0  0  0  0  0  0  0  0  0  0  0  0
  110.6250  -27.4280 1168.6490 C   0  0  0  0  0  0  0  0  0  0  0  0
  110.3790  -26.2790 1169.0700 O   0  0  0  0  0  0  0  0  0  0  0  0
  110.9810  -27.6560 1167.4720 O   0  0  0  0  0  0  0  0  0  0  0  0
  108.2250  -26.4900 1170.5790 N   0  0  0  0  0  0  0  0  0  0  0  0
  106.8620  -25.9870 1170.5540 C   0  0  2  0  0  0  0  0  0  0  0  0
  106.3980  -25.8350 1169.1160 C   0  0  0  0  0  0  0  0  0  0  0  0
  105.2450  -25.5000 1168.8440 O   0  0  0  0  0  0  0  0  0  0  0  0
  106.7620  -24.6670 1171.3040 C   0  0  0  0  0  0  0  0  0  0  0  0
  105.3510  -24.3100 1171.7120 C   0  0  0  0  0  0  0  0  0  0  0  0
  105.3880  -22.8020 1172.6760 S   0  0  0  0  0  0  0  0  0  0  0  0
  106.3950  -23.3700 1174.0440 C   0  0  0  0  0  0  0  0  0  0  0  0
  107.3220  -26.0560 1168.1930 N   0  0  0  0  0  0  0  0  0  0  0  0
  106.9880  -26.0090 1166.7860 C   0  0  2  0  0  0  0  0  0  0  0  0
  106.0650  -27.1600 1166.3960 C   0  0  0  0  0  0  0  0  0  0  0  0
  105.2750  -27.0260 1165.4690 O   0  0  0  0  0  0  0  0  0  0  0  0
  108.2590  -26.0250 1165.9480 C   0  0  0  0  0  0  0  0  0  0  0  0
  109.1210  -24.8050 1166.1730 C   0  0  0  0  0  0  0  0  0  0  0  0
  110.4600  -24.9640 1165.4930 C   0  0  0  0  0  0  0  0  0  0  0  0
  111.3230  -23.8130 1165.7220 N   0  0  0  0  0  0  0  0  0  0  0  0
  112.1060  -23.6670 1166.7850 C   0  0  0  0  0  0  0  0  0  0  0  0
  112.1400  -24.6020 1167.7250 N   0  0  0  0  0  0  0  0  0  0  0  0
  112.8540  -22.5810 1166.9080 N   0  0  0  0  0  0  0  0  0  0  0  0
  106.1550  -28.2770 1167.1130 N   0  0  0  0  0  0  0  0  0  0  0  0
  105.2690  -29.4210 1166.8830 C   0  0  2  0  0  0  0  0  0  0  0  0
  103.8070  -29.1170 1167.2000 C   0  0  0  0  0  0  0  0  0  0  0  0
  102.9030  -29.7180 1166.6190 O   0  0  0  0  0  0  0  0  0  0  0  0
  105.7370  -30.6290 1167.6930 C   0  0  0  0  0  0  0  0  0  0  0  0
  107.1530  -31.0390 1167.3510 C   0  0  0  0  0  0  0  0  0  0  0  0
  107.5370  -30.9360 1166.1660 O   0  0  0  0  0  0  0  0  0  0  0  0
  107.8880  -31.4620 1168.2640 O   0  0  0  0  0  0  0  0  0  0  0  0
  2  1  1  6
  3  2  1  0
  4  3  2  0
  5  2  1  0
  6  5  1  0
  7  6  1  0
  8  6  2  0
  9  7  2  0
 10  9  1  0
 10  8  1  0
 12 11  1  6
 13 12  1  0
 14 13  2  0
 15 12  1  0
 16 15  1  0
 15 17  1  1
 18 16  1  0
 20 19  1  0
 21 20  1  0
 22 21  2  0
 20 23  1  6
 24 21  1  0
 25 24  1  0
 26 25  1  0
 27 26  2  0
 25 28  1  6
 29 28  1  0
 30 29  1  0
 31 30  1  0
 32 31  1  0
 33 26  1  0
 34 33  1  0
 35 34  1  0
 36 35  2  0
 34 37  1  6
 38 37  1  0
 39 38  2  0
 40 38  1  0
 42 41  1  1
 43 42  1  0
 44 43  2  0
 45 42  1  0
 46 45  1  0
 47 43  1  0
 48 47  1  0
 49 48  1  0
 50 49  2  0
 48 51  1  6
 52 51  1  0
 53 49  1  0
 54 53  1  0
 55 54  1  0
 56 55  2  0
 57 55  1  0
 58 57  1  0
 59 58  1  0
 60 59  2  0
 61 59  1  0
 62 61  1  0
 63 62  1  0
 64 63  2  0
 62 65  1  6
 66 65  1  0
 67 66  2  0
 68 66  1  0
 69 63  1  0
 70 69  1  0
 71 70  1  0
 72 71  2  0
 70 73  1  1
 74 73  1  0
 75 74  1  0
 76 74  1  0
 77 71  1  0
 78 77  1  0
 79 78  1  0
 80 79  2  0
 78 81  1  6
 82 81  1  0
 83 82  1  0
 84 83  2  0
 85 83  1  0
 86 79  1  0
 87 86  1  1
 88 87  1  0
 89 88  2  0
 90 87  1  0
 91 90  1  0
 92 90  1  0
 93 88  1  0
 94 93  1  1
 95 94  1  0
 96 95  2  0
 97 94  1  0
 98 97  1  0
 97 99  1  6
101100  1  1
102101  1  0
103102  2  0
104101  1  0
105104  1  0
106105  2  0
107105  1  0
108106  1  0
109108  1  0
109107  2  0
110107  1  0
111109  1  0
112110  2  0
113112  1  0
113111  2  0
114102  1  0
115114  1  0
116115  1  0
117116  2  0
115118  1  6
119118  1  0
120119  1  0
121120  2  0
122120  1  0
124123  1  1
125124  1  0
126125  2  0
127124  1  0
128127  1  0
127129  1  6
131130  1  6
132131  1  0
133132  2  0
134131  1  0
135134  1  0
136135  1  0
137136  1  0
138137  1  0
139138  1  0
140138  2  0
142141  1  0
143142  1  0
144143  2  0
145143  1  0
146145  1  0
147146  1  0
148147  2  0
149147  1  0
150149  1  0
151150  1  0
152151  2  0
153151  1  0
154153  1  0
155154  1  0
156155  2  0
154157  1  6
158157  1  0
159158  2  0
160158  1  0
161155  1  0
162161  1  0
163162  1  0
164163  2  0
162165  1  6
166165  1  0
167166  1  0
168167  1  0
169163  1  0
170169  1  0
171170  1  0
172171  2  0
170173  1  6
174173  1  0
175174  1  0
176175  1  0
177176  1  0
178177  1  0
179177  2  0
180171  1  0
181180  1  0
182181  1  0
183182  2  0
181184  1  1
185184  1  0
186185  2  0
187185  1  0
M  END
$$$$
