
     RDKit          3D

 79 76  0  0  0  0  0  0  0  0999 V2000
  109.1950  -39.3820 1159.8740 N   0  0  0  0  0  0  0  0  0  0  0  0
  109.8340  -40.6720 1159.6630 C   0  0  2  0  0  0  0  0  0  0  0  0
  109.4020  -41.6200 1160.7730 C   0  0  0  0  0  0  0  0  0  0  0  0
  109.8940  -41.5240 1161.8980 O   0  0  0  0  0  0  0  0  0  0  0  0
  111.3610  -40.5490 1159.6550 C   0  0  0  0  0  0  0  0  0  0  0  0
  111.9280  -40.0650 1158.3260 C   0  0  0  0  0  0  0  0  0  0  0  0
  112.9960  -39.4500 1158.2940 O   0  0  0  0  0  0  0  0  0  0  0  0
  111.2370  -40.3480 1157.2290 N   0  0  0  0  0  0  0  0  0  0  0  0
  109.8600  -44.8550 1160.9640 N   0  0  0  0  0  0  0  0  0  0  0  0
  110.9990  -45.7250 1161.2530 C   0  0  2  0  0  0  0  0  0  0  0  0
  112.0410  -45.0200 1162.1140 C   0  0  0  0  0  0  0  0  0  0  0  0
  112.8580  -45.6690 1162.7680 O   0  0  0  0  0  0  0  0  0  0  0  0
  111.6810  -46.2170 1159.9620 C   0  0  2  0  0  0  0  0  0  0  0  0
  112.0690  -45.0890 1159.1680 O   0  0  0  0  0  0  0  0  0  0  0  0
  110.7330  -47.0820 1159.1550 C   0  0  0  0  0  0  0  0  0  0  0  0
  112.0150  -43.6910 1162.1060 N   0  0  0  0  0  0  0  0  0  0  0  0
  112.8830  -42.9090 1162.9760 C   0  0  2  0  0  0  0  0  0  0  0  0
  112.2420  -42.6770 1164.3350 C   0  0  0  0  0  0  0  0  0  0  0  0
  111.2030  -42.0270 1164.4450 O   0  0  0  0  0  0  0  0  0  0  0  0
  113.2340  -41.5750 1162.3200 C   0  0  0  0  0  0  0  0  0  0  0  0
  114.1480  -40.7250 1163.1740 C   0  0  0  0  0  0  0  0  0  0  0  0
  114.8540  -41.2350 1164.0390 O   0  0  0  0  0  0  0  0  0  0  0  0
  114.1590  -39.4220 1162.9160 N   0  0  0  0  0  0  0  0  0  0  0  0
  112.8700  -43.2090 1165.3750 N   0  0  0  0  0  0  0  0  0  0  0  0
  112.3490  -43.0430 1166.7220 C   0  0  2  0  0  0  0  0  0  0  0  0
  112.8670  -41.7550 1167.3640 C   0  0  0  0  0  0  0  0  0  0  0  0
  112.4940  -41.4160 1168.4850 O   0  0  0  0  0  0  0  0  0  0  0  0
  112.6740  -44.2930 1167.5610 C   0  0  0  0  0  0  0  0  0  0  0  0
  114.1660  -44.5680 1167.6770 C   0  0  0  0  0  0  0  0  0  0  0  0
  114.9580  -43.6680 1167.9490 O   0  0  0  0  0  0  0  0  0  0  0  0
  114.5570  -45.8150 1167.4270 N   0  0  0  0  0  0  0  0  0  0  0  0
  109.2370  -42.8210 1170.5730 N   0  0  0  0  0  0  0  0  0  0  0  0
  109.4320  -44.2620 1170.6040 C   0  0  2  0  0  0  0  0  0  0  0  0
  110.8370  -44.6460 1171.0540 C   0  0  0  0  0  0  0  0  0  0  0  0
  111.8130  -43.9970 1170.6820 O   0  0  0  0  0  0  0  0  0  0  0  0
  109.1600  -44.8480 1169.2200 C   0  0  0  0  0  0  0  0  0  0  0  0
  109.1180  -46.3570 1169.1820 C   0  0  0  0  0  0  0  0  0  0  0  0
  108.7280  -46.8460 1167.8100 C   0  0  0  0  0  0  0  0  0  0  0  0
  109.6630  -46.3760 1166.7920 N   0  0  0  0  0  0  0  0  0  0  0  0
  110.7710  -47.0250 1166.4500 C   0  0  0  0  0  0  0  0  0  0  0  0
  111.0900  -48.1610 1167.0570 N   0  0  0  0  0  0  0  0  0  0  0  0
  111.5660  -46.5330 1165.5110 N   0  0  0  0  0  0  0  0  0  0  0  0
  110.9380  -45.7060 1171.8520 N   0  0  0  0  0  0  0  0  0  0  0  0
  112.2380  -46.1710 1172.3190 C   0  0  2  0  0  0  0  0  0  0  0  0
  112.9420  -46.9940 1171.2420 C   0  0  0  0  0  0  0  0  0  0  0  0
  112.3060  -47.7110 1170.4650 O   0  0  0  0  0  0  0  0  0  0  0  0
  112.0910  -46.9880 1173.6070 C   0  0  0  0  0  0  0  0  0  0  0  0
  111.4850  -46.1840 1174.7440 C   0  0  0  0  0  0  0  0  0  0  0  0
  110.2420  -46.1610 1174.8540 O   0  0  0  0  0  0  0  0  0  0  0  0
  112.2490  -45.5840 1175.5320 O   0  0  0  0  0  0  0  0  0  0  0  0
  114.2660  -46.8910 1171.2140 N   0  0  0  0  0  0  0  0  0  0  0  0
  115.0560  -47.4810 1170.1490 C   0  0  0  0  0  0  0  0  0  0  0  0
  115.9330  -48.6360 1170.6000 C   0  0  0  0  0  0  0  0  0  0  0  0
  115.8270  -49.1040 1171.7330 O   0  0  0  0  0  0  0  0  0  0  0  0
  116.8270  -49.0690 1169.7120 N   0  0  0  0  0  0  0  0  0  0  0  0
  117.6680  -50.2330 1169.9400 C   0  0  0  0  0  0  0  0  0  0  0  0
  116.8540  -51.4490 1170.3380 C   0  0  0  0  0  0  0  0  0  0  0  0
  117.2630  -52.2410 1171.1870 O   0  0  0  0  0  0  0  0  0  0  0  0
  115.6950  -51.5960 1169.7030 N   0  0  0  0  0  0  0  0  0  0  0  0
  114.7770  -52.6870 1170.0060 C   0  0  2  0  0  0  0  0  0  0  0  0
  115.2700  -53.9960 1169.4030 C   0  0  0  0  0  0  0  0  0  0  0  0
  115.7680  -54.8680 1170.1230 O   0  0  0  0  0  0  0  0  0  0  0  0
  113.3840  -52.3610 1169.4990 C   0  0  0  0  0  0  0  0  0  0  0  0
  115.1420  -54.1050 1168.0800 N   0  0  0  0  0  0  0  0  0  0  0  0
  115.5640  -55.2840 1167.3200 C   0  0  2  0  0  0  0  0  0  0  0  0
  114.8700  -56.5700 1167.7590 C   0  0  0  0  0  0  0  0  0  0  0  0
  114.0170  -57.1050 1167.0490 O   0  0  0  0  0  0  0  0  0  0  0  0
  117.0850  -55.4590 1167.4320 C   0  0  0  0  0  0  0  0  0  0  0  0
  117.6180  -56.5930 1166.5750 C   0  0  0  0  0  0  0  0  0  0  0  0
  118.7320  -57.0820 1166.7910 O   0  0  0  0  0  0  0  0  0  0  0  0
  116.8480  -56.9840 1165.5690 N   0  0  0  0  0  0  0  0  0  0  0  0
  115.2570  -57.0570 1168.9320 N   0  0  0  0  0  0  0  0  0  0  0  0
  114.9080  -58.3960 1169.3820 C   0  0  2  0  0  0  0  0  0  0  0  0
  113.4440  -58.6320 1169.7450 C   0  0  0  0  0  0  0  0  0  0  0  0
  112.8310  -59.5760 1169.2490 O   0  0  0  0  0  0  0  0  0  0  0  0
  115.7890  -58.7620 1170.5810 C   0  0  0  0  0  0  0  0  0  0  0  0
  117.0550  -59.4860 1170.1630 C   0  0  0  0  0  0  0  0  0  0  0  0
  117.0370  -60.2910 1169.2280 O   0  0  0  0  0  0  0  0  0  0  0  0
  118.1650  -59.2060 1170.8410 N   0  0  0  0  0  0  0  0  0  0  0  0
  2  1  1  1
  3  2  1  0
  4  3  2  0
  5  2  1  0
  6  5  1  0
  7  6  2  0
  8  6  1  0
 10  9  1  6
 11 10  1  0
 12 11  2  0
 13 10  1  0
 14 13  1  0
 13 15  1  6
 16 11  1  0
 17 16  1  0
 18 17  1  0
 19 18  2  0
 17 20  1  6
 21 20  1  0
 22 21  2  0
 23 21  1  0
 24 18  1  0
 25 24  1  0
 26 25  1  0
 27 26  2  0
 25 28  1  1
 29 28  1  0
 30 29  2  0
 31 29  1  0
 33 32  1  6
 34 33  1  0
 35 34  2  0
 36 33  1  0
 37 36  1  0
 38 37  1  0
 39 38  1  0
 40 39  1  0
 41 40  1  0
 42 40  2  0
 43 34  1  0
 44 43  1  0
 45 44  1  0
 46 45  2  0
 44 47  1  1
 48 47  1  0
 49 48  2  0
 50 48  1  0
 51 45  1  0
 52 51  1  0
 53 52  1  0
 54 53  2  0
 55 53  1  0
 56 55  1  0
 57 56  1  0
 58 57  2  0
 59 57  1  0
 60 59  1  0
 61 60  1  0
 62 61  2  0
 60 63  1  6
 64 61  1  0
 65 64  1  0
 66 65  1  0
 67 66  2  0
 65 68  1  1
 69 68  1  0
 70 69  2  0
 71 69  1  0
 72 66  1  0
 73 72  1  0
 74 73  1  0
 75 74  2  0
 73 76  1  1
 77 76  1  0
 78 77  2  0
 79 77  1  0
M  END
$$$$
