
     RDKit          3D

 87 88  0  0  0  0  0  0  0  0999 V2000
   29.7740  -64.7360   52.0100 N   0  0  0  0  0  0  0  0  0  0  0  0
   30.5960  -63.7610   51.2670 C   0  0  2  0  0  0  0  0  0  0  0  0
   29.7180  -62.5280   51.0110 C   0  0  0  0  0  0  0  0  0  0  0  0
   28.5030  -62.6700   50.9620 O   0  0  0  0  0  0  0  0  0  0  0  0
   31.0770  -64.3450   49.9160 C   0  0  0  0  0  0  0  0  0  0  0  0
   29.9450  -64.9790   49.0700 C   0  0  0  0  0  0  0  0  0  0  0  0
   30.2370  -65.1230   47.5790 C   0  0  0  0  0  0  0  0  0  0  0  0
   29.3170  -66.1380   46.9350 C   0  0  0  0  0  0  0  0  0  0  0  0
   29.8270  -67.5230   47.1120 N   0  0  0  0  0  0  0  0  0  0  0  0
   25.8730  -63.9000   51.0390 N   0  0  0  0  0  0  0  0  0  0  0  0
   25.2750  -65.1120   50.5150 C   0  0  2  0  0  0  0  0  0  0  0  0
   26.2600  -66.2020   50.8710 C   0  0  0  0  0  0  0  0  0  0  0  0
   27.4590  -65.9230   50.9650 O   0  0  0  0  0  0  0  0  0  0  0  0
   25.0750  -65.0420   48.9930 C   0  0  0  0  0  0  0  0  0  0  0  0
   23.8790  -64.2370   48.5060 C   0  0  0  0  0  0  0  0  0  0  0  0
   23.8130  -64.2160   47.0040 C   0  0  0  0  0  0  0  0  0  0  0  0
   22.5900  -64.7460   49.0820 C   0  0  0  0  0  0  0  0  0  0  0  0
   25.8030  -67.4400   51.1140 N   0  0  0  0  0  0  0  0  0  0  0  0
   26.7470  -68.4800   51.5210 C   0  0  2  0  0  0  0  0  0  0  0  0
   27.6180  -68.9840   50.3960 C   0  0  0  0  0  0  0  0  0  0  0  0
   27.1480  -69.2080   49.2730 O   0  0  0  0  0  0  0  0  0  0  0  0
   25.8570  -69.5720   52.1100 C   0  0  0  0  0  0  0  0  0  0  0  0
   24.4720  -68.9710   52.1650 C   0  0  0  0  0  0  0  0  0  0  0  0
   24.4260  -67.9550   51.0950 C   0  0  0  0  0  0  0  0  0  0  0  0
   28.9020  -69.1480   50.7330 N   0  0  0  0  0  0  0  0  0  0  0  0
   29.9980  -69.6330   49.9020 C   0  0  2  0  0  0  0  0  0  0  0  0
   29.5810  -70.8060   49.0070 C   0  0  0  0  0  0  0  0  0  0  0  0
   28.9760  -71.7580   49.4960 O   0  0  0  0  0  0  0  0  0  0  0  0
   31.1970  -69.9940   50.7790 C   0  0  0  0  0  0  0  0  0  0  0  0
   32.1230  -68.5620   51.4120 S   0  0  0  0  0  0  0  0  0  0  0  0
   29.9010  -70.7270   47.7170 N   0  0  0  0  0  0  0  0  0  0  0  0
   29.5360  -71.7600   46.7520 C   0  0  0  0  0  0  0  0  0  0  0  0
   30.1920  -73.1240   46.8990 C   0  0  0  0  0  0  0  0  0  0  0  0
   30.8720  -73.4120   47.8960 O   0  0  0  0  0  0  0  0  0  0  0  0
   29.9660  -73.9880   45.8830 N   0  0  0  0  0  0  0  0  0  0  0  0
   30.5340  -75.3350   45.8110 C   0  0  2  0  0  0  0  0  0  0  0  0
   32.0530  -75.2580   45.6340 C   0  0  0  0  0  0  0  0  0  0  0  0
   32.5230  -74.6260   44.6890 O   0  0  0  0  0  0  0  0  0  0  0  0
   29.8990  -76.1210   44.6530 C   0  0  0  0  0  0  0  0  0  0  0  0
   32.8110  -75.8830   46.5510 N   0  0  0  0  0  0  0  0  0  0  0  0
   34.2790  -75.9070   46.5490 C   0  0  2  0  0  0  0  0  0  0  0  0
   34.8930  -74.6890   47.2680 C   0  0  0  0  0  0  0  0  0  0  0  0
   36.1060  -74.6600   47.5310 O   0  0  0  0  0  0  0  0  0  0  0  0
   34.8350  -76.0840   45.1310 C   0  0  0  0  0  0  0  0  0  0  0  0
   36.1970  -75.7110   44.9770 O   0  0  0  0  0  0  0  0  0  0  0  0
   34.0530  -73.7280   47.6570 N   0  0  0  0  0  0  0  0  0  0  0  0
   34.5470  -72.5370   48.3360 C   0  0  2  0  0  0  0  0  0  0  0  0
   34.1550  -72.4250   49.8320 C   0  0  0  0  0  0  0  0  0  0  0  0
   33.1550  -73.0140   50.2800 O   0  0  0  0  0  0  0  0  0  0  0  0
   34.1240  -71.2970   47.5670 C   0  0  0  0  0  0  0  0  0  0  0  0
   34.8760  -71.0500   46.2700 C   0  0  0  0  0  0  0  0  0  0  0  0
   34.6000  -69.6540   45.7510 C   0  0  0  0  0  0  0  0  0  0  0  0
   33.6610  -69.0180   46.2850 O   0  0  0  0  0  0  0  0  0  0  0  0
   35.3250  -69.1850   44.8410 O   0  0  0  0  0  0  0  0  0  0  0  0
   34.3220  -60.1430   48.6390 N   0  0  0  0  0  0  0  0  0  0  0  0
   33.5210  -60.3640   47.4080 C   0  0  2  0  0  0  0  0  0  0  0  0
   33.3730  -61.8600   47.0340 C   0  0  0  0  0  0  0  0  0  0  0  0
   32.2690  -62.3000   46.6740 O   0  0  0  0  0  0  0  0  0  0  0  0
   34.1540  -59.6620   46.1650 C   0  0  2  0  0  0  0  0  0  0  0  0
   35.5970  -59.4670   46.2990 O   0  0  0  0  0  0  0  0  0  0  0  0
   33.4500  -58.3860   45.8180 C   0  0  0  0  0  0  0  0  0  0  0  0
   34.5190  -62.5990   47.0540 N   0  0  0  0  0  0  0  0  0  0  0  0
   34.6600  -64.0020   46.7070 C   0  0  2  0  0  0  0  0  0  0  0  0
   35.3150  -64.7750   47.8300 C   0  0  0  0  0  0  0  0  0  0  0  0
   36.2800  -64.2880   48.4280 O   0  0  0  0  0  0  0  0  0  0  0  0
   35.5910  -64.1720   45.5010 C   0  0  0  0  0  0  0  0  0  0  0  0
   35.2420  -63.4060   44.2680 C   0  0  0  0  0  0  0  0  0  0  0  0
   35.4060  -62.0310   44.2010 N   0  0  0  0  0  0  0  0  0  0  0  0
   34.8990  -63.8670   43.0410 C   0  0  0  0  0  0  0  0  0  0  0  0
   35.0530  -61.6900   42.9720 C   0  0  0  0  0  0  0  0  0  0  0  0
   34.7520  -62.7670   42.2330 N   0  0  0  0  0  0  0  0  0  0  0  0
   34.8610  -66.0380   48.0280 N   0  0  0  0  0  0  0  0  0  0  0  0
   35.4090  -67.0180   48.9780 C   0  0  2  0  0  0  0  0  0  0  0  0
   36.6430  -67.6510   48.3210 C   0  0  0  0  0  0  0  0  0  0  0  0
   36.8730  -67.4210   47.1270 O   0  0  0  0  0  0  0  0  0  0  0  0
   34.3730  -68.0910   49.3060 C   0  0  0  0  0  0  0  0  0  0  0  0
   32.7390  -67.4650   49.7730 S   0  0  0  0  0  0  0  0  0  0  0  0
   37.3980  -68.4950   49.0630 N   0  0  0  0  0  0  0  0  0  0  0  0
   38.5750  -69.2000   48.5170 C   0  0  2  0  0  0  0  0  0  0  0  0
   38.2910  -70.6750   48.2570 C   0  0  0  0  0  0  0  0  0  0  0  0
   37.4200  -71.2580   48.9050 O   0  0  0  0  0  0  0  0  0  0  0  0
   39.8120  -69.0470   49.4090 C   0  0  0  0  0  0  0  0  0  0  0  0
   39.7450  -67.8700   50.3230 C   0  0  0  0  0  0  0  0  0  0  0  0
   39.6680  -66.5780   49.8290 N   0  0  0  0  0  0  0  0  0  0  0  0
   39.7080  -67.8280   51.6750 C   0  0  0  0  0  0  0  0  0  0  0  0
   39.6120  -65.7940   50.8940 C   0  0  0  0  0  0  0  0  0  0  0  0
   39.6340  -66.5020   52.0290 N   0  0  0  0  0  0  0  0  0  0  0  0
  2  1  1  6
  3  2  1  0
  4  3  2  0
  5  2  1  0
  6  5  1  0
  7  6  1  0
  8  7  1  0
  9  8  1  0
 11 10  1  6
 12 11  1  0
 13 12  2  0
 14 11  1  0
 15 14  1  0
 16 15  1  0
 17 15  1  0
 18 12  1  0
 19 18  1  0
 19 20  1  6
 21 20  2  0
 22 19  1  0
 23 22  1  0
 24 23  1  0
 24 18  1  0
 25 20  1  0
 26 25  1  0
 27 26  1  0
 28 27  2  0
 26 29  1  1
 30 29  1  0
 31 27  1  0
 32 31  1  0
 33 32  1  0
 34 33  2  0
 35 33  1  0
 36 35  1  0
 37 36  1  0
 38 37  2  0
 36 39  1  6
 40 37  1  0
 41 40  1  0
 42 41  1  0
 43 42  2  0
 41 44  1  6
 45 44  1  0
 46 42  1  0
 47 46  1  0
 48 47  1  0
 49 48  2  0
 47 50  1  6
 51 50  1  0
 52 51  1  0
 53 52  2  0
 54 52  1  0
 56 55  1  1
 57 56  1  0
 58 57  2  0
 59 56  1  0
 60 59  1  0
 59 61  1  1
 62 57  1  0
 63 62  1  0
 64 63  1  0
 65 64  2  0
 63 66  1  6
 67 66  1  0
 68 67  1  0
 69 67  2  0
 70 68  2  0
 71 70  1  0
 71 69  1  0
 72 64  1  0
 73 72  1  0
 74 73  1  0
 75 74  2  0
 73 76  1  6
 77 30  1  0
 77 76  1  0
 78 74  1  0
 79 78  1  0
 80 79  1  0
 81 80  2  0
 79 82  1  1
 83 82  1  0
 84 83  1  0
 85 83  2  0
 86 84  2  0
 87 86  1  0
 87 85  1  0
M  END
$$$$
