
     RDKit          3D

104103  0  0  0  0  0  0  0  0999 V2000
   89.5220  200.0200   15.6760 N   0  0  0  0  0  0  0  0  0  0  0  0
   88.3910  200.9190   15.7950 C   0  0  0  0  0  0  0  0  0  0  0  0
   87.5830  200.9520   14.5140 C   0  0  0  0  0  0  0  0  0  0  0  0
   87.8940  200.2420   13.5560 O   0  0  0  0  0  0  0  0  0  0  0  0
   86.5380  201.7700   14.4940 N   0  0  0  0  0  0  0  0  0  0  0  0
   85.7160  201.9090   13.3000 C   0  0  2  0  0  0  0  0  0  0  0  0
   86.2190  203.0610   12.4480 C   0  0  0  0  0  0  0  0  0  0  0  0
   86.2030  204.2110   12.8870 O   0  0  0  0  0  0  0  0  0  0  0  0
   84.2350  202.1530   13.6430 C   0  0  2  0  0  0  0  0  0  0  0  0
   83.7110  201.0290   14.3580 O   0  0  0  0  0  0  0  0  0  0  0  0
   83.4240  202.3630   12.3720 C   0  0  0  0  0  0  0  0  0  0  0  0
   86.1700  206.0010    9.7400 N   0  0  0  0  0  0  0  0  0  0  0  0
   85.0860  206.9550    9.4880 C   0  0  2  0  0  0  0  0  0  0  0  0
   84.4370  206.7850    8.1210 C   0  0  0  0  0  0  0  0  0  0  0  0
   84.8430  205.9280    7.3420 O   0  0  0  0  0  0  0  0  0  0  0  0
   85.7890  208.3090    9.5890 C   0  0  0  0  0  0  0  0  0  0  0  0
   87.1850  208.0240    9.1680 C   0  0  0  0  0  0  0  0  0  0  0  0
   87.4950  206.6440    9.6810 C   0  0  0  0  0  0  0  0  0  0  0  0
   83.1290  211.3600    4.0310 N   0  0  0  0  0  0  0  0  0  0  0  0
   83.1750  212.8120    4.1940 C   0  0  2  0  0  0  0  0  0  0  0  0
   84.0350  213.2740    5.3700 C   0  0  0  0  0  0  0  0  0  0  0  0
   84.4940  214.4140    5.3890 O   0  0  0  0  0  0  0  0  0  0  0  0
   81.7610  213.3810    4.3350 C   0  0  0  0  0  0  0  0  0  0  0  0
   80.8810  212.6670    5.3350 C   0  0  0  0  0  0  0  0  0  0  0  0
   80.0000  211.6760    4.9250 C   0  0  0  0  0  0  0  0  0  0  0  0
   80.9180  212.9960    6.6840 C   0  0  0  0  0  0  0  0  0  0  0  0
   79.1880  211.0250    5.8310 C   0  0  0  0  0  0  0  0  0  0  0  0
   80.1100  212.3490    7.5970 C   0  0  0  0  0  0  0  0  0  0  0  0
   79.2460  211.3650    7.1650 C   0  0  0  0  0  0  0  0  0  0  0  0
   78.4360  210.7170    8.0670 O   0  0  0  0  0  0  0  0  0  0  0  0
   84.2600  212.4000    6.3440 N   0  0  0  0  0  0  0  0  0  0  0  0
   85.1410  212.7460    7.4540 C   0  0  2  0  0  0  0  0  0  0  0  0
   86.3130  211.7790    7.5300 C   0  0  0  0  0  0  0  0  0  0  0  0
   86.6850  211.3080    8.6070 O   0  0  0  0  0  0  0  0  0  0  0  0
   84.3720  212.7760    8.7790 C   0  0  0  0  0  0  0  0  0  0  0  0
   83.8560  211.4110    9.1910 C   0  0  0  0  0  0  0  0  0  0  0  0
   83.3420  210.6530    8.3690 O   0  0  0  0  0  0  0  0  0  0  0  0
   84.0190  211.0800   10.4650 N   0  0  0  0  0  0  0  0  0  0  0  0
   86.9020  211.5190    6.3650 N   0  0  0  0  0  0  0  0  0  0  0  0
   88.0330  210.6100    6.2240 C   0  0  2  0  0  0  0  0  0  0  0  0
   89.1420  210.9410    7.2140 C   0  0  0  0  0  0  0  0  0  0  0  0
   89.4390  212.1080    7.4640 O   0  0  0  0  0  0  0  0  0  0  0  0
   88.5770  210.6730    4.7960 C   0  0  0  0  0  0  0  0  0  0  0  0
   88.8910  212.0670    4.3370 C   0  0  0  0  0  0  0  0  0  0  0  0
   90.1590  212.5970    4.5080 C   0  0  0  0  0  0  0  0  0  0  0  0
   87.9160  212.8540    3.7440 C   0  0  0  0  0  0  0  0  0  0  0  0
   90.4470  213.8810    4.0980 C   0  0  0  0  0  0  0  0  0  0  0  0
   88.1990  214.1400    3.3310 C   0  0  0  0  0  0  0  0  0  0  0  0
   89.4660  214.6540    3.5080 C   0  0  0  0  0  0  0  0  0  0  0  0
   89.7460  209.9020    7.7780 N   0  0  0  0  0  0  0  0  0  0  0  0
   90.8700  210.0520    8.6910 C   0  0  2  0  0  0  0  0  0  0  0  0
   92.1230  210.2680    7.8370 C   0  0  0  0  0  0  0  0  0  0  0  0
   92.2950  209.5980    6.8250 O   0  0  0  0  0  0  0  0  0  0  0  0
   90.9930  208.7990    9.5750 C   0  0  0  0  0  0  0  0  0  0  0  0
   91.5840  208.9660   10.9800 C   0  0  0  0  0  0  0  0  0  0  0  0
   92.5480  210.1210   11.1290 C   0  0  0  0  0  0  0  0  0  0  0  0
   93.1150  210.1650   12.5310 C   0  0  0  0  0  0  0  0  0  0  0  0
   93.7080  208.8510   12.8970 N   0  0  0  0  0  0  0  0  0  0  0  0
   91.7140  206.9890    4.9610 N   0  0  0  0  0  0  0  0  0  0  0  0
   90.9200  205.7620    4.9440 C   0  0  2  0  0  0  0  0  0  0  0  0
   89.5170  205.9700    5.5020 C   0  0  0  0  0  0  0  0  0  0  0  0
   89.3090  206.7700    6.4130 O   0  0  0  0  0  0  0  0  0  0  0  0
   91.6390  204.6490    5.7130 C   0  0  0  0  0  0  0  0  0  0  0  0
   91.8850  204.9360    7.1780 C   0  0  0  0  0  0  0  0  0  0  0  0
   90.9760  204.5410    8.1520 C   0  0  0  0  0  0  0  0  0  0  0  0
   93.0410  205.5860    7.5890 C   0  0  0  0  0  0  0  0  0  0  0  0
   91.2070  204.7960    9.4930 C   0  0  0  0  0  0  0  0  0  0  0  0
   93.2820  205.8440    8.9240 C   0  0  0  0  0  0  0  0  0  0  0  0
   92.3630  205.4480    9.8720 C   0  0  0  0  0  0  0  0  0  0  0  0
   92.6030  205.7060   11.2030 O   0  0  0  0  0  0  0  0  0  0  0  0
   80.8500  219.1930    7.0760 N   0  0  0  0  0  0  0  0  0  0  0  0
   81.2800  218.1660    8.0240 C   0  0  2  0  0  0  0  0  0  0  0  0
   80.8090  218.5030    9.4370 C   0  0  0  0  0  0  0  0  0  0  0  0
   80.6570  217.6180   10.2770 O   0  0  0  0  0  0  0  0  0  0  0  0
   82.8130  217.9860    8.0470 C   0  0  0  0  0  0  0  0  0  0  0  0
   83.2970  217.4050    6.7300 C   0  0  0  0  0  0  0  0  0  0  0  0
   83.5120  219.3000    8.3440 C   0  0  0  0  0  0  0  0  0  0  0  0
   76.9080  217.4150    9.4900 N   0  0  0  0  0  0  0  0  0  0  0  0
   76.5880  216.0290    9.1710 C   0  0  2  0  0  0  0  0  0  0  0  0
   77.1230  215.0990   10.2470 C   0  0  0  0  0  0  0  0  0  0  0  0
   78.3170  215.1200   10.5470 O   0  0  0  0  0  0  0  0  0  0  0  0
   77.1670  215.6020    7.8100 C   0  0  0  0  0  0  0  0  0  0  0  0
   76.9640  214.1130    7.5870 C   0  0  0  0  0  0  0  0  0  0  0  0
   76.5410  216.4110    6.6880 C   0  0  0  0  0  0  0  0  0  0  0  0
   76.2390  214.2730   10.8290 N   0  0  0  0  0  0  0  0  0  0  0  0
   76.6360  213.3170   11.8670 C   0  0  2  0  0  0  0  0  0  0  0  0
   77.5980  212.2880   11.2960 C   0  0  0  0  0  0  0  0  0  0  0  0
   77.5390  212.0220   10.0960 O   0  0  0  0  0  0  0  0  0  0  0  0
   75.3120  212.6640   12.2880 C   0  0  0  0  0  0  0  0  0  0  0  0
   74.2390  213.5500   11.7470 C   0  0  0  0  0  0  0  0  0  0  0  0
   74.8020  214.1980   10.5290 C   0  0  0  0  0  0  0  0  0  0  0  0
   78.4680  211.7320   12.1360 N   0  0  0  0  0  0  0  0  0  0  0  0
   79.4540  210.7460   11.7000 C   0  0  2  0  0  0  0  0  0  0  0  0
   78.8100  209.6230   10.8900 C   0  0  0  0  0  0  0  0  0  0  0  0
   79.4180  209.0770    9.9700 O   0  0  0  0  0  0  0  0  0  0  0  0
   80.1950  210.1710   12.9070 C   0  0  0  0  0  0  0  0  0  0  0  0
   79.3310  209.3810   13.7030 O   0  0  0  0  0  0  0  0  0  0  0  0
   77.5740  209.2890   11.2410 N   0  0  0  0  0  0  0  0  0  0  0  0
   76.7510  208.4100   10.4270 C   0  0  2  0  0  0  0  0  0  0  0  0
   75.3830  209.0580   10.2470 C   0  0  0  0  0  0  0  0  0  0  0  0
   74.8000  209.5560   11.2080 O   0  0  0  0  0  0  0  0  0  0  0  0
   76.6010  207.0130   11.0700 C   0  0  2  0  0  0  0  0  0  0  0  0
   77.8680  206.3430   11.0680 O   0  0  0  0  0  0  0  0  0  0  0  0
   75.5830  206.1710   10.3170 C   0  0  0  0  0  0  0  0  0  0  0  0
  2  1  1  0
  3  2  1  0
  4  3  2  0
  5  3  1  0
  6  5  1  1
  7  6  1  0
  8  7  2  0
  9  6  1  0
 10  9  1  0
  9 11  1  6
 13 12  1  0
 13 14  1  6
 15 14  2  0
 16 13  1  0
 17 16  1  0
 18 12  1  0
 18 17  1  0
 20 19  1  1
 21 20  1  0
 22 21  2  0
 23 20  1  0
 24 23  1  0
 25 24  2  0
 26 24  1  0
 27 25  1  0
 28 26  2  0
 29 28  1  0
 29 27  2  0
 30 29  1  0
 31 21  1  0
 32 31  1  0
 33 32  1  0
 34 33  2  0
 32 35  1  1
 36 35  1  0
 37 36  2  0
 38 36  1  0
 39 33  1  0
 40 39  1  0
 41 40  1  0
 42 41  2  0
 40 43  1  6
 44 43  1  0
 45 44  2  0
 46 44  1  0
 47 45  1  0
 48 46  2  0
 49 48  1  0
 49 47  2  0
 50 41  1  0
 51 50  1  0
 52 51  1  0
 53 52  2  0
 51 54  1  6
 55 54  1  0
 56 55  1  0
 57 56  1  0
 58 57  1  0
 60 59  1  1
 61 60  1  0
 62 61  2  0
 63 60  1  0
 64 63  1  0
 65 64  2  0
 66 64  1  0
 67 65  1  0
 68 66  2  0
 69 67  2  0
 69 68  1  0
 70 69  1  0
 72 71  1  6
 73 72  1  0
 74 73  2  0
 75 72  1  0
 76 75  1  0
 77 75  1  0
 79 78  1  1
 80 79  1  0
 81 80  2  0
 82 79  1  0
 83 82  1  0
 84 82  1  0
 85 80  1  0
 86 85  1  0
 86 87  1  6
 88 87  2  0
 89 86  1  0
 90 89  1  0
 91 85  1  0
 91 90  1  0
 92 87  1  0
 93 92  1  0
 94 93  1  0
 95 94  2  0
 93 96  1  1
 97 96  1  0
 98 94  1  0
 99 98  1  1
100 99  1  0
101100  2  0
102 99  1  0
103102  1  0
102104  1  6
M  END
$$$$
