
     RDKit          3D

114111  0  0  0  0  0  0  0  0999 V2000
    8.0640   14.7470   -4.3320 N   0  0  0  0  0  0  0  0  0  0  0  0
    8.4960   14.2700   -5.6390 C   0  0  2  0  0  0  0  0  0  0  0  0
    8.1010   12.8090   -5.7610 C   0  0  0  0  0  0  0  0  0  0  0  0
    8.4730   11.9920   -4.9140 O   0  0  0  0  0  0  0  0  0  0  0  0
   10.0040   14.4330   -5.8340 C   0  0  0  0  0  0  0  0  0  0  0  0
   10.4350   14.1410   -7.2580 C   0  0  0  0  0  0  0  0  0  0  0  0
    9.6490   14.2740   -8.1950 O   0  0  0  0  0  0  0  0  0  0  0  0
   11.6880   13.7380   -7.4270 N   0  0  0  0  0  0  0  0  0  0  0  0
    7.3500   12.4830   -6.8130 N   0  0  0  0  0  0  0  0  0  0  0  0
    6.9470   11.1040   -7.0390 C   0  0  2  0  0  0  0  0  0  0  0  0
    8.0930   10.2440   -7.5450 C   0  0  0  0  0  0  0  0  0  0  0  0
    7.9700    9.0140   -7.5380 O   0  0  0  0  0  0  0  0  0  0  0  0
    5.7800   11.0560   -8.0290 C   0  0  0  0  0  0  0  0  0  0  0  0
    4.9810   12.3450   -8.0470 C   0  0  0  0  0  0  0  0  0  0  0  0
    4.2650   12.6560   -7.0960 O   0  0  0  0  0  0  0  0  0  0  0  0
    5.0970   13.1000   -9.1340 N   0  0  0  0  0  0  0  0  0  0  0  0
    9.1870   10.8550   -7.9810 N   0  0  0  0  0  0  0  0  0  0  0  0
   10.3350   10.1430   -8.5360 C   0  0  2  0  0  0  0  0  0  0  0  0
   11.3800    9.9880   -7.4410 C   0  0  0  0  0  0  0  0  0  0  0  0
   11.8790   11.0030   -6.9320 O   0  0  0  0  0  0  0  0  0  0  0  0
   10.9160   10.8860   -9.7480 C   0  0  0  0  0  0  0  0  0  0  0  0
   11.9100    9.9900  -10.4810 C   0  0  0  0  0  0  0  0  0  0  0  0
    9.8010   11.3300  -10.6760 C   0  0  0  0  0  0  0  0  0  0  0  0
   11.7390    8.7290   -7.0270 N   0  0  0  0  0  0  0  0  0  0  0  0
   12.8770    8.5240   -6.1130 C   0  0  2  0  0  0  0  0  0  0  0  0
   14.1830    8.6830   -6.8850 C   0  0  0  0  0  0  0  0  0  0  0  0
   14.8230    7.7130   -7.2880 O   0  0  0  0  0  0  0  0  0  0  0  0
   12.6640    7.0900   -5.6120 C   0  0  0  0  0  0  0  0  0  0  0  0
   11.2760    6.6620   -6.0960 C   0  0  0  0  0  0  0  0  0  0  0  0
   11.0310    7.4700   -7.3260 C   0  0  0  0  0  0  0  0  0  0  0  0
   16.6270    8.7530  -12.8230 N   0  0  0  0  0  0  0  0  0  0  0  0
   15.9400    7.5630  -12.3330 C   0  0  2  0  0  0  0  0  0  0  0  0
   16.4810    6.3330  -13.0470 C   0  0  0  0  0  0  0  0  0  0  0  0
   16.3830    6.2290  -14.2770 O   0  0  0  0  0  0  0  0  0  0  0  0
   14.4260    7.6750  -12.5240 C   0  0  0  0  0  0  0  0  0  0  0  0
   13.6650    6.6100  -11.7590 C   0  0  0  0  0  0  0  0  0  0  0  0
   14.2920    5.8980  -10.9450 O   0  0  0  0  0  0  0  0  0  0  0  0
   12.4380    6.4940  -11.9630 O   0  0  0  0  0  0  0  0  0  0  0  0
   17.3740    1.8710  -11.9920 N   0  0  0  0  0  0  0  0  0  0  0  0
   17.3580    0.7970  -10.9980 C   0  0  2  0  0  0  0  0  0  0  0  0
   18.1600   -0.4120  -11.4660 C   0  0  0  0  0  0  0  0  0  0  0  0
   18.7670   -1.1160  -10.6600 O   0  0  0  0  0  0  0  0  0  0  0  0
   15.9230    0.3720  -10.6870 C   0  0  0  0  0  0  0  0  0  0  0  0
   15.0030    1.4440  -10.1050 C   0  0  0  0  0  0  0  0  0  0  0  0
   13.5880    0.9110  -10.0080 C   0  0  0  0  0  0  0  0  0  0  0  0
   15.5050    1.8950   -8.7440 C   0  0  0  0  0  0  0  0  0  0  0  0
   15.7390    7.5170  -16.8590 N   0  0  0  0  0  0  0  0  0  0  0  0
   15.1610    8.8100  -17.1780 C   0  0  2  0  0  0  0  0  0  0  0  0
   16.0230    9.9250  -16.6080 C   0  0  0  0  0  0  0  0  0  0  0  0
   16.6240    9.7890  -15.5380 O   0  0  0  0  0  0  0  0  0  0  0  0
   13.7370    8.9400  -16.6280 C   0  0  0  0  0  0  0  0  0  0  0  0
   12.8060    7.8620  -17.0860 C   0  0  0  0  0  0  0  0  0  0  0  0
   12.3420    7.7780  -18.3810 N   0  0  0  0  0  0  0  0  0  0  0  0
   12.2380    6.8310  -16.4160 C   0  0  0  0  0  0  0  0  0  0  0  0
   11.5350    6.7380  -18.4910 C   0  0  0  0  0  0  0  0  0  0  0  0
   11.4540    6.1470  -17.3130 N   0  0  0  0  0  0  0  0  0  0  0  0
   14.8200   13.4760  -15.8780 N   0  0  0  0  0  0  0  0  0  0  0  0
   13.7030   14.4090  -15.8800 C   0  0  2  0  0  0  0  0  0  0  0  0
   14.1820   15.8280  -15.6140 C   0  0  0  0  0  0  0  0  0  0  0  0
   15.0760   16.0510  -14.7970 O   0  0  0  0  0  0  0  0  0  0  0  0
   12.6760   14.0070  -14.8260 C   0  0  0  0  0  0  0  0  0  0  0  0
   11.9960   12.6870  -15.0940 C   0  0  0  0  0  0  0  0  0  0  0  0
   11.6750   12.2950  -16.3880 C   0  0  0  0  0  0  0  0  0  0  0  0
   11.6780   11.8290  -14.0530 C   0  0  0  0  0  0  0  0  0  0  0  0
   11.0480   11.0850  -16.6330 C   0  0  0  0  0  0  0  0  0  0  0  0
   11.0570   10.6210  -14.2860 C   0  0  0  0  0  0  0  0  0  0  0  0
   10.7440   10.2530  -15.5770 C   0  0  0  0  0  0  0  0  0  0  0  0
   10.1260    9.0450  -15.8040 O   0  0  0  0  0  0  0  0  0  0  0  0
   12.5400   18.5450  -13.8840 N   0  0  0  0  0  0  0  0  0  0  0  0
   11.4300   18.9160  -13.0220 C   0  0  2  0  0  0  0  0  0  0  0  0
   11.5290   20.3830  -12.6240 C   0  0  0  0  0  0  0  0  0  0  0  0
   12.5970   20.9990  -12.6750 O   0  0  0  0  0  0  0  0  0  0  0  0
   11.3930   18.0260  -11.7820 C   0  0  0  0  0  0  0  0  0  0  0  0
   11.1570   16.5660  -12.1100 C   0  0  0  0  0  0  0  0  0  0  0  0
   11.2880   15.6710  -10.9000 C   0  0  0  0  0  0  0  0  0  0  0  0
   11.8960   16.0480   -9.8990 O   0  0  0  0  0  0  0  0  0  0  0  0
   10.7150   14.4780  -10.9840 N   0  0  0  0  0  0  0  0  0  0  0  0
    7.2470   18.8360   -7.2280 N   0  0  0  0  0  0  0  0  0  0  0  0
    7.9930   18.8270   -8.4770 C   0  0  2  0  0  0  0  0  0  0  0  0
    7.0850   18.4180   -9.6280 C   0  0  0  0  0  0  0  0  0  0  0  0
    6.2740   17.4960   -9.5020 O   0  0  0  0  0  0  0  0  0  0  0  0
    9.1780   17.8650   -8.3870 C   0  0  0  0  0  0  0  0  0  0  0  0
   10.2350   18.2780   -7.4110 C   0  0  0  0  0  0  0  0  0  0  0  0
   10.5000   17.7080   -6.2020 C   0  0  0  0  0  0  0  0  0  0  0  0
   11.1710   19.3490   -7.5630 C   0  0  0  0  0  0  0  0  0  0  0  0
   11.5420   18.3570   -5.5900 N   0  0  0  0  0  0  0  0  0  0  0  0
   11.9710   19.3700   -6.4050 C   0  0  0  0  0  0  0  0  0  0  0  0
   11.4090   20.2940   -8.5640 C   0  0  0  0  0  0  0  0  0  0  0  0
   12.9900   20.2960   -6.2210 C   0  0  0  0  0  0  0  0  0  0  0  0
   12.4210   21.2120   -8.3790 C   0  0  0  0  0  0  0  0  0  0  0  0
   13.1990   21.2070   -7.2160 C   0  0  0  0  0  0  0  0  0  0  0  0
    7.2350   19.0980  -10.7610 N   0  0  0  0  0  0  0  0  0  0  0  0
    6.4850   18.7930  -11.9730 C   0  0  2  0  0  0  0  0  0  0  0  0
    7.4900   18.4590  -13.0650 C   0  0  0  0  0  0  0  0  0  0  0  0
    8.2600   19.3260  -13.4970 O   0  0  0  0  0  0  0  0  0  0  0  0
    5.5740   19.9510  -12.4010 C   0  0  2  0  0  0  0  0  0  0  0  0
    4.5000   20.2100  -11.3390 C   0  0  0  0  0  0  0  0  0  0  0  0
    4.9470   19.6620  -13.7620 C   0  0  0  0  0  0  0  0  0  0  0  0
    3.4220   21.1780  -11.7820 C   0  0  0  0  0  0  0  0  0  0  0  0
    7.4850   17.2060  -13.5120 N   0  0  0  0  0  0  0  0  0  0  0  0
    8.3320   16.8130  -14.6280 C   0  0  2  0  0  0  0  0  0  0  0  0
    7.9150   17.5600  -15.8880 C   0  0  0  0  0  0  0  0  0  0  0  0
    6.7240   17.7000  -16.1800 O   0  0  0  0  0  0  0  0  0  0  0  0
    8.2370   15.3050  -14.8540 C   0  0  2  0  0  0  0  0  0  0  0  0
    8.4700   14.6210  -13.6170 O   0  0  0  0  0  0  0  0  0  0  0  0
    9.2640   14.8520  -15.8760 C   0  0  0  0  0  0  0  0  0  0  0  0
   11.8400   14.5880  -20.5800 N   0  0  0  0  0  0  0  0  0  0  0  0
   12.7910   13.4880  -20.4530 C   0  0  2  0  0  0  0  0  0  0  0  0
   13.8400   13.7090  -21.5350 C   0  0  0  0  0  0  0  0  0  0  0  0
   13.6450   13.3200  -22.6900 O   0  0  0  0  0  0  0  0  0  0  0  0
   12.1110   12.1290  -20.5980 C   0  0  0  0  0  0  0  0  0  0  0  0
   13.0640   10.9620  -20.3520 C   0  0  0  0  0  0  0  0  0  0  0  0
   14.2500   11.0340  -20.7440 O   0  0  0  0  0  0  0  0  0  0  0  0
   12.6190    9.9590  -19.7610 O   0  0  0  0  0  0  0  0  0  0  0  0
  2  1  1  1
  3  2  1  0
  4  3  2  0
  5  2  1  0
  6  5  1  0
  7  6  2  0
  8  6  1  0
  9  3  1  0
 10  9  1  0
 11 10  1  0
 12 11  2  0
 10 13  1  6
 14 13  1  0
 15 14  2  0
 16 14  1  0
 17 11  1  0
 18 17  1  1
 19 18  1  0
 20 19  2  0
 21 18  1  0
 22 21  1  0
 23 21  1  0
 24 19  1  0
 25 24  1  0
 25 26  1  6
 27 26  2  0
 28 25  1  0
 29 28  1  0
 30 29  1  0
 30 24  1  0
 32 31  1  6
 33 32  1  0
 34 33  2  0
 35 32  1  0
 36 35  1  0
 37 36  2  0
 38 36  1  0
 40 39  1  6
 41 40  1  0
 42 41  2  0
 43 40  1  0
 44 43  1  0
 45 44  1  0
 46 44  1  0
 48 47  1  1
 49 48  1  0
 50 49  2  0
 51 48  1  0
 52 51  1  0
 53 52  1  0
 54 52  2  0
 55 53  2  0
 56 55  1  0
 56 54  1  0
 58 57  1  1
 59 58  1  0
 60 59  2  0
 61 58  1  0
 62 61  1  0
 63 62  2  0
 64 62  1  0
 65 63  1  0
 66 64  2  0
 67 66  1  0
 67 65  2  0
 68 67  1  0
 70 69  1  6
 71 70  1  0
 72 71  2  0
 73 70  1  0
 74 73  1  0
 75 74  1  0
 76 75  2  0
 77 75  1  0
 79 78  1  1
 80 79  1  0
 81 80  2  0
 82 79  1  0
 83 82  1  0
 84 83  2  0
 85 83  1  0
 86 84  1  0
 87 86  1  0
 87 85  2  0
 88 85  1  0
 89 87  1  0
 90 88  2  0
 91 90  1  0
 91 89  2  0
 92 80  1  0
 93 92  1  1
 94 93  1  0
 95 94  2  0
 96 93  1  0
 97 96  1  0
 96 98  1  6
 99 97  1  0
100 94  1  0
101100  1  1
102101  1  0
103102  2  0
104101  1  0
105104  1  0
104106  1  6
108107  1  6
109108  1  0
110109  2  0
111108  1  0
112111  1  0
113112  2  0
114112  1  0
M  END
$$$$
