
     RDKit          3D

227214  0  0  0  0  0  0  0  0999 V2000
    1.0750  -50.2290  125.0040 N   0  0  0  0  0  0  0  0  0  0  0  0
    1.1850  -51.6720  124.7070 C   0  0  0  0  0  0  0  0  0  0  0  0
    0.1250  -52.4150  125.4780 C   0  0  0  0  0  0  0  0  0  0  0  0
   -0.7570  -51.8020  126.0230 O   0  0  0  0  0  0  0  0  0  0  0  0
    0.2280  -53.7400  125.4830 N   0  0  0  0  0  0  0  0  0  0  0  0
   -0.8950  -54.5560  125.9850 C   0  0  2  0  0  0  0  0  0  0  0  0
   -0.3940  -55.8040  126.6890 C   0  0  0  0  0  0  0  0  0  0  0  0
    0.4270  -56.5340  126.1810 O   0  0  0  0  0  0  0  0  0  0  0  0
   -1.8570  -54.9350  124.8500 C   0  0  0  0  0  0  0  0  0  0  0  0
   -3.0190  -55.8190  125.3120 C   0  0  0  0  0  0  0  0  0  0  0  0
   -2.8500  -57.1750  125.4160 C   0  0  0  0  0  0  0  0  0  0  0  0
   -4.2780  -55.2810  125.5860 C   0  0  0  0  0  0  0  0  0  0  0  0
   -3.9020  -57.9960  125.7860 C   0  0  0  0  0  0  0  0  0  0  0  0
   -5.3570  -56.1300  125.9770 C   0  0  0  0  0  0  0  0  0  0  0  0
   -5.1090  -57.4870  126.0920 C   0  0  0  0  0  0  0  0  0  0  0  0
   -6.1180  -58.4010  126.4460 O   0  0  0  0  0  0  0  0  0  0  0  0
   -2.9680  -58.0880  129.3260 N   0  0  0  0  0  0  0  0  0  0  0  0
   -4.2790  -58.1530  130.0120 C   0  0  2  0  0  0  0  0  0  0  0  0
   -5.1910  -56.9760  129.8000 C   0  0  0  0  0  0  0  0  0  0  0  0
   -6.4370  -57.0940  129.9250 O   0  0  0  0  0  0  0  0  0  0  0  0
   -4.1110  -58.4100  131.5440 C   0  0  0  0  0  0  0  0  0  0  0  0
   -3.1420  -59.5410  131.8350 C   0  0  0  0  0  0  0  0  0  0  0  0
   -3.1410  -59.9430  133.3000 C   0  0  0  0  0  0  0  0  0  0  0  0
   -2.2030  -61.0630  133.4720 N   0  0  0  0  0  0  0  0  0  0  0  0
   -1.7740  -61.5080  134.6470 C   0  0  0  0  0  0  0  0  0  0  0  0
   -2.2100  -60.9460  135.7750 N   0  0  0  0  0  0  0  0  0  0  0  0
   -0.9030  -62.5070  134.6750 N   0  0  0  0  0  0  0  0  0  0  0  0
   -4.7740  -52.6010  127.9390 N   0  0  0  0  0  0  0  0  0  0  0  0
   -3.8680  -51.5700  127.3280 C   0  0  2  0  0  0  0  0  0  0  0  0
   -3.1440  -50.9340  128.5190 C   0  0  0  0  0  0  0  0  0  0  0  0
   -3.7390  -50.7800  129.5940 O   0  0  0  0  0  0  0  0  0  0  0  0
   -4.6380  -50.5640  126.4910 C   0  0  0  0  0  0  0  0  0  0  0  0
   -5.4770  -51.2400  125.4950 O   0  0  0  0  0  0  0  0  0  0  0  0
   -2.8930  -49.3180  123.5030 N   0  0  0  0  0  0  0  0  0  0  0  0
   -2.1040  -50.2830  122.7090 C   0  0  2  0  0  0  0  0  0  0  0  0
   -2.4770  -50.1040  121.1890 C   0  0  0  0  0  0  0  0  0  0  0  0
   -3.5550  -49.5580  120.8360 O   0  0  0  0  0  0  0  0  0  0  0  0
   -2.4730  -51.7370  123.1830 C   0  0  0  0  0  0  0  0  0  0  0  0
   -3.8960  -51.8680  123.1830 O   0  0  0  0  0  0  0  0  0  0  0  0
   -1.6530  -50.6600  120.3160 N   0  0  0  0  0  0  0  0  0  0  0  0
   -1.8480  -50.4800  118.8610 C   0  0  0  0  0  0  0  0  0  0  0  0
   -1.5510  -49.0520  118.3830 C   0  0  0  0  0  0  0  0  0  0  0  0
   -1.9600  -48.6470  117.3130 O   0  0  0  0  0  0  0  0  0  0  0  0
   -5.5840  -47.7120  120.9410 N   0  0  0  0  0  0  0  0  0  0  0  0
   -6.8700  -47.9690  121.5730 C   0  0  2  0  0  0  0  0  0  0  0  0
   -6.6760  -48.3820  123.0300 C   0  0  0  0  0  0  0  0  0  0  0  0
   -5.6790  -49.0450  123.3910 O   0  0  0  0  0  0  0  0  0  0  0  0
   -7.6840  -48.9940  120.8240 C   0  0  0  0  0  0  0  0  0  0  0  0
   -7.3280  -50.4330  121.0300 C   0  0  0  0  0  0  0  0  0  0  0  0
   -8.4630  -51.3060  120.4550 C   0  0  0  0  0  0  0  0  0  0  0  0
   -8.1370  -52.6640  120.7610 N   0  0  0  0  0  0  0  0  0  0  0  0
   -8.8550  -53.7200  120.3940 C   0  0  0  0  0  0  0  0  0  0  0  0
   -8.4070  -54.9130  120.6850 N   0  0  0  0  0  0  0  0  0  0  0  0
   -9.9950  -53.5720  119.7300 N   0  0  0  0  0  0  0  0  0  0  0  0
   -8.0600  -50.7330  125.5080 N   0  0  0  0  0  0  0  0  0  0  0  0
   -8.7530  -51.9870  125.6570 C   0  0  2  0  0  0  0  0  0  0  0  0
   -8.6650  -52.3150  127.1660 C   0  0  0  0  0  0  0  0  0  0  0  0
   -7.6870  -52.8590  127.6620 O   0  0  0  0  0  0  0  0  0  0  0  0
   -8.0750  -53.0910  124.7790 C   0  0  0  0  0  0  0  0  0  0  0  0
   -8.6820  -54.4550  125.0230 C   0  0  0  0  0  0  0  0  0  0  0  0
   -9.6090  -54.5720  125.8300 O   0  0  0  0  0  0  0  0  0  0  0  0
   -8.1960  -55.4950  124.3020 N   0  0  0  0  0  0  0  0  0  0  0  0
  -13.6570  -50.6020  125.6570 N   0  0  0  0  0  0  0  0  0  0  0  0
  -12.6900  -50.4290  124.6320 C   0  0  2  0  0  0  0  0  0  0  0  0
  -13.0320  -49.2420  123.7480 C   0  0  0  0  0  0  0  0  0  0  0  0
  -14.1440  -49.1260  123.2390 O   0  0  0  0  0  0  0  0  0  0  0  0
  -12.5610  -51.7280  123.8390 C   0  0  0  0  0  0  0  0  0  0  0  0
  -11.5920  -51.5820  122.7590 C   0  0  0  0  0  0  0  0  0  0  0  0
  -10.4430  -51.4000  123.0750 O   0  0  0  0  0  0  0  0  0  0  0  0
  -12.0320  -51.4640  121.5100 N   0  0  0  0  0  0  0  0  0  0  0  0
   -6.7290  -47.1300  115.5190 N   0  0  0  0  0  0  0  0  0  0  0  0
   -6.0440  -48.2600  116.2180 C   0  0  2  0  0  0  0  0  0  0  0  0
   -5.2170  -49.1070  115.2310 C   0  0  0  0  0  0  0  0  0  0  0  0
   -5.6610  -49.2950  114.1020 O   0  0  0  0  0  0  0  0  0  0  0  0
   -7.1450  -49.1390  116.8300 C   0  0  0  0  0  0  0  0  0  0  0  0
   -6.6050  -50.3660  117.5020 C   0  0  0  0  0  0  0  0  0  0  0  0
   -5.5230  -50.3880  118.0950 O   0  0  0  0  0  0  0  0  0  0  0  0
   -7.3630  -51.4440  117.3440 N   0  0  0  0  0  0  0  0  0  0  0  0
   -4.0300  -49.5660  115.6520 N   0  0  0  0  0  0  0  0  0  0  0  0
   -3.0750  -50.3070  114.8300 C   0  0  2  0  0  0  0  0  0  0  0  0
   -2.6380  -49.4220  113.6470 C   0  0  0  0  0  0  0  0  0  0  0  0
   -2.6260  -49.8650  112.4690 O   0  0  0  0  0  0  0  0  0  0  0  0
   -3.6470  -51.6620  114.3760 C   0  0  0  0  0  0  0  0  0  0  0  0
   -4.2000  -52.4420  115.6280 C   0  0  0  0  0  0  0  0  0  0  0  0
   -4.3450  -53.9200  115.4080 C   0  0  0  0  0  0  0  0  0  0  0  0
   -3.0130  -54.4360  115.1100 N   0  0  0  0  0  0  0  0  0  0  0  0
   -2.7700  -55.4230  114.2880 C   0  0  0  0  0  0  0  0  0  0  0  0
   -3.8000  -56.0300  113.6750 N   0  0  0  0  0  0  0  0  0  0  0  0
   -1.4910  -55.8200  114.0840 N   0  0  0  0  0  0  0  0  0  0  0  0
   -4.7920  -51.7910  108.2390 N   0  0  0  0  0  0  0  0  0  0  0  0
   -4.5190  -51.6930  109.6820 C   0  0  2  0  0  0  0  0  0  0  0  0
   -3.3790  -52.6340  109.9930 C   0  0  0  0  0  0  0  0  0  0  0  0
   -3.1620  -53.5560  109.2140 O   0  0  0  0  0  0  0  0  0  0  0  0
   -5.7630  -51.9560  110.5330 C   0  0  2  0  0  0  0  0  0  0  0  0
   -6.0360  -53.4740  110.7360 C   0  0  0  0  0  0  0  0  0  0  0  0
   -6.9600  -51.2880  109.8790 C   0  0  0  0  0  0  0  0  0  0  0  0
   -6.8740  -53.7320  112.0030 C   0  0  0  0  0  0  0  0  0  0  0  0
   -2.6730  -52.4330  111.1270 N   0  0  0  0  0  0  0  0  0  0  0  0
   -1.5100  -53.2330  111.4110 C   0  0  0  0  0  0  0  0  0  0  0  0
   -0.3980  -53.0060  110.3660 C   0  0  0  0  0  0  0  0  0  0  0  0
    0.3720  -53.9290  110.0560 O   0  0  0  0  0  0  0  0  0  0  0  0
   -0.1720  -55.3070  106.2600 N   0  0  0  0  0  0  0  0  0  0  0  0
   -1.3500  -54.8770  107.0170 C   0  0  0  0  0  0  0  0  0  0  0  0
   -2.5480  -55.7520  106.6570 C   0  0  0  0  0  0  0  0  0  0  0  0
   -2.3800  -56.8410  106.0500 O   0  0  0  0  0  0  0  0  0  0  0  0
   -3.7340  -55.2570  106.9980 N   0  0  0  0  0  0  0  0  0  0  0  0
   -4.9740  -56.0160  106.8400 C   0  0  2  0  0  0  0  0  0  0  0  0
   -6.0520  -55.0730  106.3810 C   0  0  0  0  0  0  0  0  0  0  0  0
   -6.2200  -53.9840  106.9660 O   0  0  0  0  0  0  0  0  0  0  0  0
   -5.2630  -56.7490  108.1860 C   0  0  0  0  0  0  0  0  0  0  0  0
   -6.6130  -57.4230  108.2650 C   0  0  0  0  0  0  0  0  0  0  0  0
   -6.8520  -58.5740  107.6220 C   0  0  0  0  0  0  0  0  0  0  0  0
   -7.6040  -56.9010  109.1090 C   0  0  0  0  0  0  0  0  0  0  0  0
   -8.1030  -59.2000  107.7610 C   0  0  0  0  0  0  0  0  0  0  0  0
   -8.8350  -57.5170  109.2420 C   0  0  0  0  0  0  0  0  0  0  0  0
   -9.0760  -58.6650  108.5590 C   0  0  0  0  0  0  0  0  0  0  0  0
   -5.1100  -60.2120  104.8990 N   0  0  0  0  0  0  0  0  0  0  0  0
   -3.7940  -59.7240  105.2020 C   0  0  2  0  0  0  0  0  0  0  0  0
   -3.0820  -59.5250  103.8600 C   0  0  0  0  0  0  0  0  0  0  0  0
   -3.3850  -60.1950  102.8880 O   0  0  0  0  0  0  0  0  0  0  0  0
   -3.0220  -60.7300  106.0450 C   0  0  0  0  0  0  0  0  0  0  0  0
   -3.1180  -60.5290  107.5630 C   0  0  0  0  0  0  0  0  0  0  0  0
   -4.0050  -61.4710  108.2890 C   0  0  0  0  0  0  0  0  0  0  0  0
   -4.4540  -60.8440  109.5400 N   0  0  0  0  0  0  0  0  0  0  0  0
   -5.5760  -61.1780  110.1640 C   0  0  0  0  0  0  0  0  0  0  0  0
   -6.3940  -62.0990  109.6620 N   0  0  0  0  0  0  0  0  0  0  0  0
   -5.8840  -60.5480  111.3130 N   0  0  0  0  0  0  0  0  0  0  0  0
    0.7270  -58.9120  108.2930 N   0  0  0  0  0  0  0  0  0  0  0  0
    0.1200  -57.8130  109.0460 C   0  0  2  0  0  0  0  0  0  0  0  0
    0.8160  -57.7670  110.4080 C   0  0  0  0  0  0  0  0  0  0  0  0
    1.2220  -58.8200  110.9170 O   0  0  0  0  0  0  0  0  0  0  0  0
   -1.3830  -58.0770  109.2000 C   0  0  0  0  0  0  0  0  0  0  0  0
   -2.0310  -56.9330  109.7180 O   0  0  0  0  0  0  0  0  0  0  0  0
    0.9500  -56.5660  111.0210 N   0  0  0  0  0  0  0  0  0  0  0  0
    1.5670  -56.3910  112.3920 C   0  0  0  0  0  0  0  0  0  0  0  0
    3.1020  -56.7170  112.3990 C   0  0  0  0  0  0  0  0  0  0  0  0
    3.6630  -57.1880  113.3950 O   0  0  0  0  0  0  0  0  0  0  0  0
    3.7490  -56.5400  111.2550 N   0  0  0  0  0  0  0  0  0  0  0  0
    5.2010  -56.6280  111.1680 C   0  0  2  0  0  0  0  0  0  0  0  0
    5.8090  -55.3800  111.7230 C   0  0  0  0  0  0  0  0  0  0  0  0
    5.1270  -54.3710  111.9600 O   0  0  0  0  0  0  0  0  0  0  0  0
    5.6490  -56.9080  109.6960 C   0  0  0  0  0  0  0  0  0  0  0  0
    5.4330  -60.3280  112.1210 N   0  0  0  0  0  0  0  0  0  0  0  0
    4.0100  -60.1200  111.8020 C   0  0  0  0  0  0  0  0  0  0  0  0
    3.2670  -61.4570  111.7110 C   0  0  0  0  0  0  0  0  0  0  0  0
    3.6870  -62.4800  112.2640 O   0  0  0  0  0  0  0  0  0  0  0  0
    2.2010  -61.4770  110.9200 N   0  0  0  0  0  0  0  0  0  0  0  0
    1.2180  -62.5400  110.9990 C   0  0  2  0  0  0  0  0  0  0  0  0
    0.6970  -62.6950  109.5840 C   0  0  0  0  0  0  0  0  0  0  0  0
    0.3080  -61.7040  108.9430 O   0  0  0  0  0  0  0  0  0  0  0  0
    0.0910  -62.1220  111.9800 C   0  0  0  0  0  0  0  0  0  0  0  0
   -1.0880  -63.1190  111.9870 C   0  0  0  0  0  0  0  0  0  0  0  0
   -0.9590  -64.3700  112.6110 C   0  0  0  0  0  0  0  0  0  0  0  0
   -2.3320  -62.7780  111.4010 C   0  0  0  0  0  0  0  0  0  0  0  0
   -2.0370  -65.2730  112.6300 C   0  0  0  0  0  0  0  0  0  0  0  0
   -3.4180  -63.6640  111.4560 C   0  0  0  0  0  0  0  0  0  0  0  0
   -3.2540  -64.9020  112.0480 C   0  0  0  0  0  0  0  0  0  0  0  0
   -4.3260  -65.7790  112.0830 O   0  0  0  0  0  0  0  0  0  0  0  0
    2.0510  -66.5900  113.4160 N   0  0  0  0  0  0  0  0  0  0  0  0
    3.0210  -65.5410  113.7700 C   0  0  2  0  0  0  0  0  0  0  0  0
    4.3810  -65.8640  113.0940 C   0  0  0  0  0  0  0  0  0  0  0  0
    4.7680  -67.0320  113.0120 O   0  0  0  0  0  0  0  0  0  0  0  0
    3.1170  -65.3090  115.2990 C   0  0  0  0  0  0  0  0  0  0  0  0
    1.7890  -64.8930  115.9930 C   0  0  0  0  0  0  0  0  0  0  0  0
    0.8260  -66.0680  116.1970 C   0  0  0  0  0  0  0  0  0  0  0  0
    1.2320  -67.2210  116.1550 O   0  0  0  0  0  0  0  0  0  0  0  0
   -0.5080  -65.7800  116.3580 N   0  0  0  0  0  0  0  0  0  0  0  0
    4.3590  -61.0760  116.4660 N   0  0  0  0  0  0  0  0  0  0  0  0
    3.4500  -60.1940  115.7430 C   0  0  2  0  0  0  0  0  0  0  0  0
    3.1360  -59.0640  116.6770 C   0  0  0  0  0  0  0  0  0  0  0  0
    3.1240  -59.2480  117.9110 O   0  0  0  0  0  0  0  0  0  0  0  0
    2.1810  -61.0270  115.3270 C   0  0  0  0  0  0  0  0  0  0  0  0
    1.3350  -60.2950  114.4690 O   0  0  0  0  0  0  0  0  0  0  0  0
    2.8210  -57.8920  116.0970 N   0  0  0  0  0  0  0  0  0  0  0  0
    2.5560  -56.6530  116.8210 C   0  0  2  0  0  0  0  0  0  0  0  0
    3.7590  -56.3190  117.7590 C   0  0  0  0  0  0  0  0  0  0  0  0
    3.5890  -55.9140  118.9040 O   0  0  0  0  0  0  0  0  0  0  0  0
    1.2220  -56.7150  117.5890 C   0  0  0  0  0  0  0  0  0  0  0  0
    5.8110  -58.1890  121.4550 N   0  0  0  0  0  0  0  0  0  0  0  0
    4.9590  -58.8790  120.5120 C   0  0  0  0  0  0  0  0  0  0  0  0
    4.1290  -59.9720  121.1690 C   0  0  0  0  0  0  0  0  0  0  0  0
    4.1780  -60.1780  122.4120 O   0  0  0  0  0  0  0  0  0  0  0  0
    3.3720  -60.6690  120.3290 N   0  0  0  0  0  0  0  0  0  0  0  0
    2.6020  -61.8530  120.7230 C   0  0  2  0  0  0  0  0  0  0  0  0
    3.0490  -62.9320  119.7700 C   0  0  0  0  0  0  0  0  0  0  0  0
    3.2380  -62.6690  118.5430 O   0  0  0  0  0  0  0  0  0  0  0  0
    1.1260  -61.5590  120.5150 C   0  0  0  0  0  0  0  0  0  0  0  0
    0.1990  -62.7220  120.7990 C   0  0  0  0  0  0  0  0  0  0  0  0
    0.0400  -63.2000  122.0960 C   0  0  0  0  0  0  0  0  0  0  0  0
   -0.5470  -63.3010  119.7950 C   0  0  0  0  0  0  0  0  0  0  0  0
   -0.7940  -64.2870  122.3550 C   0  0  0  0  0  0  0  0  0  0  0  0
   -1.4120  -64.3740  120.0380 C   0  0  0  0  0  0  0  0  0  0  0  0
   -1.5450  -64.8350  121.3330 C   0  0  0  0  0  0  0  0  0  0  0  0
   -2.4150  -65.9330  121.5860 O   0  0  0  0  0  0  0  0  0  0  0  0
    3.1840  -64.1650  120.2680 N   0  0  0  0  0  0  0  0  0  0  0  0
    3.6470  -65.2800  119.4250 C   0  0  2  0  0  0  0  0  0  0  0  0
    2.6350  -66.4370  119.2340 C   0  0  0  0  0  0  0  0  0  0  0  0
    3.0200  -67.5430  118.8460 O   0  0  0  0  0  0  0  0  0  0  0  0
    4.9930  -65.8370  119.9950 C   0  0  0  0  0  0  0  0  0  0  0  0
    4.7960  -66.6530  121.2740 C   0  0  0  0  0  0  0  0  0  0  0  0
    3.7060  -66.5390  121.9190 O   0  0  0  0  0  0  0  0  0  0  0  0
    5.7290  -67.4210  121.5940 O   0  0  0  0  0  0  0  0  0  0  0  0
    1.3520  -66.1910  119.4990 N   0  0  0  0  0  0  0  0  0  0  0  0
    0.3530  -67.2770  119.4250 C   0  0  0  0  0  0  0  0  0  0  0  0
    0.1620  -68.0410  120.7440 C   0  0  0  0  0  0  0  0  0  0  0  0
   -0.6680  -68.9510  120.8250 O   0  0  0  0  0  0  0  0  0  0  0  0
    2.7460  -63.1040  125.4800 N   0  0  0  0  0  0  0  0  0  0  0  0
    3.3640  -61.7880  125.2460 C   0  0  2  0  0  0  0  0  0  0  0  0
    4.8390  -61.7610  125.5680 C   0  0  0  0  0  0  0  0  0  0  0  0
    5.2140  -61.9720  126.7000 O   0  0  0  0  0  0  0  0  0  0  0  0
    2.6080  -60.7390  126.0310 C   0  0  0  0  0  0  0  0  0  0  0  0
    1.1800  -60.7060  125.6640 C   0  0  0  0  0  0  0  0  0  0  0  0
    0.7520  -59.9740  124.6180 C   0  0  0  0  0  0  0  0  0  0  0  0
    0.2640  -61.5080  126.2600 C   0  0  0  0  0  0  0  0  0  0  0  0
   -0.6050  -59.9590  124.2570 C   0  0  0  0  0  0  0  0  0  0  0  0
   -1.0630  -61.5330  125.8370 C   0  0  0  0  0  0  0  0  0  0  0  0
   -1.4950  -60.7550  124.8100 C   0  0  0  0  0  0  0  0  0  0  0  0
    2.5640  -56.6590  123.8360 N   0  0  0  0  0  0  0  0  0  0  0  0
    2.4680  -56.4630  122.3720 C   0  0  2  0  0  0  0  0  0  0  0  0
    1.9240  -55.0670  122.0840 C   0  0  0  0  0  0  0  0  0  0  0  0
    1.4320  -54.3460  122.9870 O   0  0  0  0  0  0  0  0  0  0  0  0
    1.4780  -57.5170  121.7590 C   0  0  0  0  0  0  0  0  0  0  0  0
    0.1740  -57.2350  122.2810 O   0  0  0  0  0  0  0  0  0  0  0  0
    1.9430  -54.6550  120.7900 N   0  0  0  0  0  0  0  0  0  0  0  0
    1.2080  -53.4110  120.4330 C   0  0  0  0  0  0  0  0  0  0  0  0
    1.7520  -52.0930  121.0470 C   0  0  0  0  0  0  0  0  0  0  0  0
    1.0030  -51.1510  121.2840 O   0  0  0  0  0  0  0  0  0  0  0  0
  2  1  1  0
  3  2  1  0
  4  3  2  0
  5  3  1  0
  6  5  1  0
  7  6  1  0
  8  7  2  0
  6  9  1  6
 10  9  1  0
 11 10  2  0
 12 10  1  0
 13 11  1  0
 14 12  2  0
 15 14  1  0
 15 13  2  0
 16 15  1  0
 18 17  1  1
 19 18  1  0
 20 19  2  0
 21 18  1  0
 22 21  1  0
 23 22  1  0
 24 23  1  0
 25 24  1  0
 26 25  1  0
 27 25  2  0
 29 28  1  1
 30 29  1  0
 31 30  2  0
 32 29  1  0
 33 32  1  0
 35 34  1  1
 36 35  1  0
 37 36  2  0
 38 35  1  0
 39 38  1  0
 40 36  1  0
 41 40  1  0
 42 41  1  0
 43 42  2  0
 45 44  1  6
 46 45  1  0
 47 46  2  0
 48 45  1  0
 49 48  1  0
 50 49  1  0
 51 50  1  0
 52 51  1  0
 53 52  1  0
 54 52  2  0
 56 55  1  1
 57 56  1  0
 58 57  2  0
 59 56  1  0
 60 59  1  0
 61 60  2  0
 62 60  1  0
 64 63  1  1
 65 64  1  0
 66 65  2  0
 67 64  1  0
 68 67  1  0
 69 68  2  0
 70 68  1  0
 72 71  1  6
 73 72  1  0
 74 73  2  0
 75 72  1  0
 76 75  1  0
 77 76  2  0
 78 76  1  0
 79 73  1  0
 80 79  1  0
 81 80  1  0
 82 81  2  0
 80 83  1  6
 84 83  1  0
 85 84  1  0
 86 85  1  0
 87 86  1  0
 88 87  1  0
 89 87  2  0
 91 90  1  6
 92 91  1  0
 93 92  2  0
 94 91  1  0
 95 94  1  0
 94 96  1  6
 97 95  1  0
 98 92  1  0
 99 98  1  0
100 99  1  0
101100  2  0
103102  1  0
104103  1  0
105104  2  0
106104  1  0
107106  1  0
108107  1  0
109108  2  0
107110  1  1
111110  1  0
112111  2  0
113111  1  0
114112  1  0
115113  2  0
116114  2  0
116115  1  0
118117  1  6
119118  1  0
120119  2  0
121118  1  0
122121  1  0
123122  1  0
124123  1  0
125124  1  0
126125  1  0
127125  2  0
129128  1  6
130129  1  0
131130  2  0
132129  1  0
133132  1  0
134130  1  0
135134  1  0
136135  1  0
137136  2  0
138136  1  0
139138  1  0
140139  1  0
141140  2  0
139142  1  6
144143  1  0
145144  1  0
146145  2  0
147145  1  0
148147  1  0
149148  1  0
150149  2  0
148151  1  1
152151  1  0
153152  2  0
154152  1  0
155153  1  0
156154  2  0
157156  1  0
157155  2  0
158157  1  0
160159  1  1
161160  1  0
162161  2  0
163160  1  0
164163  1  0
165164  1  0
166165  2  0
167165  1  0
169168  1  1
170169  1  0
171170  2  0
172169  1  0
173172  1  0
174170  1  0
175174  1  0
176175  1  0
177176  2  0
175178  1  1
180179  1  0
181180  1  0
182181  2  0
183181  1  0
184183  1  0
185184  1  0
186185  2  0
184187  1  6
188187  1  0
189188  2  0
190188  1  0
191189  1  0
192190  2  0
193192  1  0
193191  2  0
194193  1  0
195185  1  0
196195  1  0
197196  1  0
198197  2  0
196199  1  1
200199  1  0
201200  2  0
202200  1  0
203197  1  0
204203  1  0
205204  1  0
206205  2  0
208207  1  1
209208  1  0
210209  2  0
211208  1  0
212211  1  0
213212  2  0
214212  1  0
215213  1  0
216214  2  0
217215  2  0
217216  1  0
219218  1  1
220219  1  0
221220  2  0
222219  1  0
223222  1  0
224220  1  0
225224  1  0
226225  1  0
227226  2  0
M  END
$$$$
