
     RDKit          3D

104100  0  0  0  0  0  0  0  0999 V2000
   61.3550  -17.9300   28.2570 N   0  0  0  0  0  0  0  0  0  0  0  0
   61.5460  -17.0550   27.1080 C   0  0  2  0  0  0  0  0  0  0  0  0
   60.7130  -17.5070   25.9140 C   0  0  0  0  0  0  0  0  0  0  0  0
   60.4690  -18.7020   25.7300 O   0  0  0  0  0  0  0  0  0  0  0  0
   63.0130  -17.0260   26.6930 C   0  0  0  0  0  0  0  0  0  0  0  0
   60.2750  -16.5300   25.1040 N   0  0  0  0  0  0  0  0  0  0  0  0
   59.7530  -16.8090   23.7590 C   0  0  2  0  0  0  0  0  0  0  0  0
   60.9010  -17.1070   22.7930 C   0  0  0  0  0  0  0  0  0  0  0  0
   61.0820  -18.2460   22.3540 O   0  0  0  0  0  0  0  0  0  0  0  0
   58.9160  -15.6250   23.2450 C   0  0  0  0  0  0  0  0  0  0  0  0
   57.5440  -15.4430   23.8980 C   0  0  0  0  0  0  0  0  0  0  0  0
   56.7630  -14.2870   23.2510 C   0  0  0  0  0  0  0  0  0  0  0  0
   55.3550  -14.1850   23.8050 C   0  0  0  0  0  0  0  0  0  0  0  0
   54.7140  -12.8470   23.6300 N   0  0  0  0  0  0  0  0  0  0  0  0
   61.6950  -16.0900   22.4620 N   0  0  0  0  0  0  0  0  0  0  0  0
   62.7800  -16.2280   21.5020 C   0  0  2  0  0  0  0  0  0  0  0  0
   64.1110  -15.8660   22.1510 C   0  0  0  0  0  0  0  0  0  0  0  0
   64.1940  -14.9610   22.9920 O   0  0  0  0  0  0  0  0  0  0  0  0
   62.5430  -15.3630   20.2360 C   0  0  2  0  0  0  0  0  0  0  0  0
   61.4630  -15.9150   19.4630 O   0  0  0  0  0  0  0  0  0  0  0  0
   63.7860  -15.3270   19.3450 C   0  0  0  0  0  0  0  0  0  0  0  0
   60.1000  -28.7770   17.5180 N   0  0  0  0  0  0  0  0  0  0  0  0
   59.0990  -29.6670   18.1090 C   0  0  2  0  0  0  0  0  0  0  0  0
   57.8690  -29.8230   17.2200 C   0  0  0  0  0  0  0  0  0  0  0  0
   57.1630  -30.8290   17.3160 O   0  0  0  0  0  0  0  0  0  0  0  0
   58.6620  -29.1510   19.4810 C   0  0  0  0  0  0  0  0  0  0  0  0
   59.6840  -29.2270   20.4550 O   0  0  0  0  0  0  0  0  0  0  0  0
   57.5710  -28.8400   16.3850 N   0  0  0  0  0  0  0  0  0  0  0  0
   56.4060  -28.9320   15.5360 C   0  0  0  0  0  0  0  0  0  0  0  0
   55.9130  -27.5410   15.1970 C   0  0  0  0  0  0  0  0  0  0  0  0
   56.5950  -26.5450   15.4440 O   0  0  0  0  0  0  0  0  0  0  0  0
   54.7030  -27.5010   14.6440 N   0  0  0  0  0  0  0  0  0  0  0  0
   54.1180  -26.2700   14.1560 C   0  0  0  0  0  0  0  0  0  0  0  0
   54.2350  -26.1510   12.6500 C   0  0  0  0  0  0  0  0  0  0  0  0
   54.5860  -27.1000   11.9430 O   0  0  0  0  0  0  0  0  0  0  0  0
   53.9430  -24.9420   12.1590 N   0  0  0  0  0  0  0  0  0  0  0  0
   53.8630  -24.6900   10.7210 C   0  0  2  0  0  0  0  0  0  0  0  0
   55.2070  -24.9150   10.0360 C   0  0  0  0  0  0  0  0  0  0  0  0
   56.2790  -24.8770   10.6560 O   0  0  0  0  0  0  0  0  0  0  0  0
   53.3900  -23.2580   10.4360 C   0  0  0  0  0  0  0  0  0  0  0  0
   51.9810  -22.9810   10.9660 C   0  0  0  0  0  0  0  0  0  0  0  0
   51.2530  -23.9450   11.2820 O   0  0  0  0  0  0  0  0  0  0  0  0
   51.5950  -21.7960   11.0640 O   0  0  0  0  0  0  0  0  0  0  0  0
   55.1380  -25.1470    8.7200 N   0  0  0  0  0  0  0  0  0  0  0  0
   56.3520  -25.3820    7.9480 C   0  0  2  0  0  0  0  0  0  0  0  0
   57.2390  -24.1530    7.9180 C   0  0  0  0  0  0  0  0  0  0  0  0
   58.4540  -24.2680    7.7320 O   0  0  0  0  0  0  0  0  0  0  0  0
   56.0080  -25.7840    6.5230 C   0  0  0  0  0  0  0  0  0  0  0  0
   55.4190  -27.1670    6.3610 C   0  0  0  0  0  0  0  0  0  0  0  0
   54.7200  -27.2710    5.0160 C   0  0  0  0  0  0  0  0  0  0  0  0
   56.5650  -28.1520    6.4580 C   0  0  0  0  0  0  0  0  0  0  0  0
   58.1650  -22.4950   10.3640 N   0  0  0  0  0  0  0  0  0  0  0  0
   59.0760  -22.5440   11.5050 C   0  0  2  0  0  0  0  0  0  0  0  0
   59.7910  -23.8850   11.6600 C   0  0  0  0  0  0  0  0  0  0  0  0
   60.8990  -23.9170   12.2120 O   0  0  0  0  0  0  0  0  0  0  0  0
   58.3730  -22.1670   12.8180 C   0  0  2  0  0  0  0  0  0  0  0  0
   57.3610  -23.2440   13.2180 C   0  0  0  0  0  0  0  0  0  0  0  0
   57.7720  -20.7800   12.6970 C   0  0  0  0  0  0  0  0  0  0  0  0
   56.6440  -22.9250   14.5450 C   0  0  0  0  0  0  0  0  0  0  0  0
   64.8680  -21.5200   20.4290 N   0  0  0  0  0  0  0  0  0  0  0  0
   63.9230  -21.7660   21.5020 C   0  0  2  0  0  0  0  0  0  0  0  0
   64.5410  -22.7970   22.4400 C   0  0  0  0  0  0  0  0  0  0  0  0
   65.1580  -23.7620   21.9750 O   0  0  0  0  0  0  0  0  0  0  0  0
   62.5930  -22.2750   20.9030 C   0  0  2  0  0  0  0  0  0  0  0  0
   61.7260  -21.1590   20.6530 O   0  0  0  0  0  0  0  0  0  0  0  0
   61.9220  -23.2860   21.7990 C   0  0  0  0  0  0  0  0  0  0  0  0
   64.3960  -22.5950   23.7500 N   0  0  0  0  0  0  0  0  0  0  0  0
   64.9090  -23.5330   24.7430 C   0  0  2  0  0  0  0  0  0  0  0  0
   63.7390  -24.3060   25.3390 C   0  0  0  0  0  0  0  0  0  0  0  0
   62.7470  -23.6990   25.7440 O   0  0  0  0  0  0  0  0  0  0  0  0
   65.6760  -22.7940   25.8450 C   0  0  0  0  0  0  0  0  0  0  0  0
   66.0760  -23.6480   27.0560 C   0  0  0  0  0  0  0  0  0  0  0  0
   66.7600  -22.8340   28.1830 C   0  0  0  0  0  0  0  0  0  0  0  0
   65.7990  -22.0700   28.9790 N   0  0  0  0  0  0  0  0  0  0  0  0
   65.1010  -22.5600   30.0040 C   0  0  0  0  0  0  0  0  0  0  0  0
   65.2630  -23.8240   30.3830 N   0  0  0  0  0  0  0  0  0  0  0  0
   64.2280  -21.7860   30.6540 N   0  0  0  0  0  0  0  0  0  0  0  0
   65.8010  -24.7060   16.7430 N   0  0  0  0  0  0  0  0  0  0  0  0
   65.6690  -23.5550   15.8380 C   0  0  2  0  0  0  0  0  0  0  0  0
   64.2570  -23.0110   15.8900 C   0  0  0  0  0  0  0  0  0  0  0  0
   63.3010  -23.7810   15.9190 O   0  0  0  0  0  0  0  0  0  0  0  0
   65.9860  -24.1480   14.4600 C   0  0  0  0  0  0  0  0  0  0  0  0
   66.8380  -25.3740   14.7790 C   0  0  0  0  0  0  0  0  0  0  0  0
   66.3010  -25.9150   16.0560 C   0  0  0  0  0  0  0  0  0  0  0  0
   64.1330  -21.6800   15.9040 N   0  0  0  0  0  0  0  0  0  0  0  0
   62.8650  -21.0090   16.1300 C   0  0  0  0  0  0  0  0  0  0  0  0
   62.5980  -19.9200   15.1040 C   0  0  0  0  0  0  0  0  0  0  0  0
   62.9320  -20.0440   13.9280 O   0  0  0  0  0  0  0  0  0  0  0  0
   61.9980  -18.8290   15.5660 N   0  0  0  0  0  0  0  0  0  0  0  0
   61.5310  -17.7850   14.6740 C   0  0  0  0  0  0  0  0  0  0  0  0
   60.0560  -17.9320   14.3610 C   0  0  0  0  0  0  0  0  0  0  0  0
   59.3320  -18.7560   14.9280 O   0  0  0  0  0  0  0  0  0  0  0  0
   59.6090  -17.1120   13.4190 N   0  0  0  0  0  0  0  0  0  0  0  0
   58.1870  -17.0410   13.1120 C   0  0  0  0  0  0  0  0  0  0  0  0
   57.6300  -15.6710   13.4610 C   0  0  0  0  0  0  0  0  0  0  0  0
   56.7920  -15.1360   12.7310 O   0  0  0  0  0  0  0  0  0  0  0  0
   58.1060  -15.0900   14.5700 N   0  0  0  0  0  0  0  0  0  0  0  0
   57.7320  -13.7370   14.9850 C   0  0  2  0  0  0  0  0  0  0  0  0
   58.7300  -12.7620   14.3800 C   0  0  0  0  0  0  0  0  0  0  0  0
   59.8260  -12.5420   14.9190 O   0  0  0  0  0  0  0  0  0  0  0  0
   57.6840  -13.6060   16.5030 C   0  0  0  0  0  0  0  0  0  0  0  0
   57.2900  -12.1990   16.9500 C   0  0  0  0  0  0  0  0  0  0  0  0
   56.9470  -11.3460   16.1230 O   0  0  0  0  0  0  0  0  0  0  0  0
   57.3330  -11.9520   18.2560 N   0  0  0  0  0  0  0  0  0  0  0  0
  2  1  1  0
  3  2  1  0
  4  3  2  0
  2  5  1  6
  6  3  1  0
  7  6  1  0
  8  7  1  0
  9  8  2  0
  7 10  1  6
 11 10  1  0
 12 11  1  0
 13 12  1  0
 14 13  1  0
 15  8  1  0
 16 15  1  1
 17 16  1  0
 18 17  2  0
 19 16  1  0
 20 19  1  0
 19 21  1  6
 23 22  1  6
 24 23  1  0
 25 24  2  0
 26 23  1  0
 27 26  1  0
 28 24  1  0
 29 28  1  0
 30 29  1  0
 31 30  2  0
 32 30  1  0
 33 32  1  0
 34 33  1  0
 35 34  2  0
 36 34  1  0
 37 36  1  0
 38 37  1  0
 39 38  2  0
 37 40  1  1
 41 40  1  0
 42 41  2  0
 43 41  1  0
 44 38  1  0
 45 44  1  0
 46 45  1  0
 47 46  2  0
 45 48  1  6
 49 48  1  0
 50 49  1  0
 51 49  1  0
 53 52  1  6
 54 53  1  0
 55 54  2  0
 56 53  1  0
 57 56  1  0
 56 58  1  6
 59 57  1  0
 61 60  1  6
 62 61  1  0
 63 62  2  0
 64 61  1  0
 65 64  1  0
 64 66  1  1
 67 62  1  0
 68 67  1  0
 69 68  1  0
 70 69  2  0
 68 71  1  1
 72 71  1  0
 73 72  1  0
 74 73  1  0
 75 74  1  0
 76 75  1  0
 77 75  2  0
 79 78  1  0
 79 80  1  6
 81 80  2  0
 82 79  1  0
 83 82  1  0
 84 83  1  0
 84 78  1  0
 85 80  1  0
 86 85  1  0
 87 86  1  0
 88 87  2  0
 89 87  1  0
 90 89  1  0
 91 90  1  0
 92 91  2  0
 93 91  1  0
 94 93  1  0
 95 94  1  0
 96 95  2  0
 97 95  1  0
 98 97  1  0
 99 98  1  0
100 99  2  0
 98101  1  1
102101  1  0
103102  2  0
104102  1  0
M  END
$$$$
