
     RDKit          3D

144142  0  0  0  0  0  0  0  0999 V2000
  137.8420  -34.3360  -28.4250 N   0  0  0  0  0  0  0  0  0  0  0  0
  138.8730  -35.1090  -27.7420 C   0  0  2  0  0  0  0  0  0  0  0  0
  140.1150  -35.2480  -28.6110 C   0  0  0  0  0  0  0  0  0  0  0  0
  141.2400  -35.0970  -28.1340 O   0  0  0  0  0  0  0  0  0  0  0  0
  138.3500  -36.4920  -27.3540 C   0  0  0  0  0  0  0  0  0  0  0  0
  137.2060  -36.4570  -26.3600 C   0  0  0  0  0  0  0  0  0  0  0  0
  137.2990  -37.6000  -25.3640 C   0  0  0  0  0  0  0  0  0  0  0  0
  137.1950  -38.9470  -26.0490 C   0  0  0  0  0  0  0  0  0  0  0  0
  137.2380  -40.0550  -25.0580 N   0  0  0  0  0  0  0  0  0  0  0  0
  139.9010  -35.5400  -29.8880 N   0  0  0  0  0  0  0  0  0  0  0  0
  140.9950  -35.7190  -30.8340 C   0  0  2  0  0  0  0  0  0  0  0  0
  140.5920  -35.2010  -32.2090 C   0  0  0  0  0  0  0  0  0  0  0  0
  139.4660  -35.4140  -32.6570 O   0  0  0  0  0  0  0  0  0  0  0  0
  141.4110  -37.2030  -30.9570 C   0  0  2  0  0  0  0  0  0  0  0  0
  141.6690  -37.7490  -29.6580 O   0  0  0  0  0  0  0  0  0  0  0  0
  142.6610  -37.3400  -31.8090 C   0  0  0  0  0  0  0  0  0  0  0  0
  151.1420  -30.0810  -24.1690 N   0  0  0  0  0  0  0  0  0  0  0  0
  150.9960  -29.5660  -22.8140 C   0  0  2  0  0  0  0  0  0  0  0  0
  150.7840  -30.6960  -21.8130 C   0  0  0  0  0  0  0  0  0  0  0  0
  149.6840  -31.2360  -21.7000 O   0  0  0  0  0  0  0  0  0  0  0  0
  149.8310  -28.5760  -22.7400 C   0  0  0  0  0  0  0  0  0  0  0  0
  149.6560  -28.0890  -21.4200 O   0  0  0  0  0  0  0  0  0  0  0  0
  151.8450  -31.0520  -21.0940 N   0  0  0  0  0  0  0  0  0  0  0  0
  151.7630  -32.0700  -20.0620 C   0  0  0  0  0  0  0  0  0  0  0  0
  151.5970  -33.4860  -20.5790 C   0  0  0  0  0  0  0  0  0  0  0  0
  151.4420  -33.7060  -21.7810 O   0  0  0  0  0  0  0  0  0  0  0  0
  151.6280  -34.4480  -19.6620 N   0  0  0  0  0  0  0  0  0  0  0  0
  151.4840  -35.8490  -20.0140 C   0  0  0  0  0  0  0  0  0  0  0  0
  152.7890  -36.6190  -19.9620 C   0  0  0  0  0  0  0  0  0  0  0  0
  153.8670  -36.0260  -19.8990 O   0  0  0  0  0  0  0  0  0  0  0  0
  152.6930  -37.9450  -19.9840 N   0  0  0  0  0  0  0  0  0  0  0  0
  153.8750  -38.7950  -20.0340 C   0  0  2  0  0  0  0  0  0  0  0  0
  154.5560  -38.6550  -21.3910 C   0  0  0  0  0  0  0  0  0  0  0  0
  153.9810  -38.1060  -22.3310 O   0  0  0  0  0  0  0  0  0  0  0  0
  153.5080  -40.2570  -19.7690 C   0  0  0  0  0  0  0  0  0  0  0  0
  152.8260  -40.4580  -18.4270 C   0  0  0  0  0  0  0  0  0  0  0  0
  153.1420  -39.7130  -17.4760 O   0  0  0  0  0  0  0  0  0  0  0  0
  151.9610  -41.3540  -18.3300 O   0  0  0  0  0  0  0  0  0  0  0  0
  155.7800  -39.1600  -21.4880 N   0  0  0  0  0  0  0  0  0  0  0  0
  156.5930  -38.9890  -22.6880 C   0  0  2  0  0  0  0  0  0  0  0  0
  155.9690  -39.6330  -23.9250 C   0  0  0  0  0  0  0  0  0  0  0  0
  156.2830  -39.2530  -25.0530 O   0  0  0  0  0  0  0  0  0  0  0  0
  157.9920  -39.5570  -22.4530 C   0  0  0  0  0  0  0  0  0  0  0  0
  158.7500  -38.9300  -21.2810 C   0  0  0  0  0  0  0  0  0  0  0  0
  160.0310  -39.6880  -20.9990 C   0  0  0  0  0  0  0  0  0  0  0  0
  159.0440  -37.4660  -21.5630 C   0  0  0  0  0  0  0  0  0  0  0  0
  155.0810  -40.5990  -23.7120 N   0  0  0  0  0  0  0  0  0  0  0  0
  154.4440  -41.3070  -24.8200 C   0  0  2  0  0  0  0  0  0  0  0  0
  153.5310  -40.4010  -25.6420 C   0  0  0  0  0  0  0  0  0  0  0  0
  153.2220  -40.7100  -26.7920 O   0  0  0  0  0  0  0  0  0  0  0  0
  153.6440  -42.5070  -24.3050 C   0  0  0  0  0  0  0  0  0  0  0  0
  154.4880  -43.6580  -23.7810 C   0  0  0  0  0  0  0  0  0  0  0  0
  154.9980  -43.4210  -22.3740 C   0  0  0  0  0  0  0  0  0  0  0  0
  154.6970  -42.3550  -21.8020 O   0  0  0  0  0  0  0  0  0  0  0  0
  155.6990  -44.3050  -21.8380 O   0  0  0  0  0  0  0  0  0  0  0  0
  153.0940  -39.2890  -25.0580 N   0  0  0  0  0  0  0  0  0  0  0  0
  152.2100  -38.3740  -25.7710 C   0  0  2  0  0  0  0  0  0  0  0  0
  152.8600  -37.0100  -25.9670 C   0  0  0  0  0  0  0  0  0  0  0  0
  152.4050  -36.2170  -26.7920 O   0  0  0  0  0  0  0  0  0  0  0  0
  150.8600  -38.2210  -25.0500 C   0  0  2  0  0  0  0  0  0  0  0  0
  151.0400  -37.4840  -23.7210 C   0  0  0  0  0  0  0  0  0  0  0  0
  150.2030  -39.5800  -24.8470 C   0  0  0  0  0  0  0  0  0  0  0  0
  149.7490  -36.9510  -23.1480 C   0  0  0  0  0  0  0  0  0  0  0  0
  155.5410  -46.7590  -20.4240 N   0  0  0  0  0  0  0  0  0  0  0  0
  154.1590  -46.8820  -19.9850 C   0  0  2  0  0  0  0  0  0  0  0  0
  153.3590  -47.5850  -21.0800 C   0  0  0  0  0  0  0  0  0  0  0  0
  153.2040  -47.0490  -22.1770 O   0  0  0  0  0  0  0  0  0  0  0  0
  153.5530  -45.5090  -19.6860 C   0  0  0  0  0  0  0  0  0  0  0  0
  154.3830  -44.7020  -18.7040 C   0  0  0  0  0  0  0  0  0  0  0  0
  154.7930  -45.2060  -17.6580 O   0  0  0  0  0  0  0  0  0  0  0  0
  154.6390  -43.4430  -19.0410 N   0  0  0  0  0  0  0  0  0  0  0  0
  152.8650  -48.7850  -20.7880 N   0  0  0  0  0  0  0  0  0  0  0  0
  152.1200  -49.5720  -21.7720 C   0  0  2  0  0  0  0  0  0  0  0  0
  150.8640  -48.8420  -22.2450 C   0  0  0  0  0  0  0  0  0  0  0  0
  150.1600  -48.2230  -21.4500 O   0  0  0  0  0  0  0  0  0  0  0  0
  151.7510  -50.9390  -21.1890 C   0  0  0  0  0  0  0  0  0  0  0  0
  152.9320  -51.8900  -21.0430 C   0  0  0  0  0  0  0  0  0  0  0  0
  152.6160  -53.2450  -19.8930 S   0  0  0  0  0  0  0  0  0  0  0  0
  151.0620  -53.8770  -20.5220 C   0  0  0  0  0  0  0  0  0  0  0  0
  150.5950  -48.9170  -23.5460 N   0  0  0  0  0  0  0  0  0  0  0  0
  149.4650  -48.2110  -24.1440 C   0  0  2  0  0  0  0  0  0  0  0  0
  148.1550  -48.9690  -23.9590 C   0  0  0  0  0  0  0  0  0  0  0  0
  147.0750  -48.4190  -24.1770 O   0  0  0  0  0  0  0  0  0  0  0  0
  149.7120  -47.9710  -25.6360 C   0  0  0  0  0  0  0  0  0  0  0  0
  149.7840  -49.2360  -26.4370 C   0  0  0  0  0  0  0  0  0  0  0  0
  150.9080  -49.9450  -26.7460 C   0  0  0  0  0  0  0  0  0  0  0  0
  148.6860  -49.9480  -27.0270 C   0  0  0  0  0  0  0  0  0  0  0  0
  150.5800  -51.0500  -27.4920 N   0  0  0  0  0  0  0  0  0  0  0  0
  149.2230  -51.0760  -27.6770 C   0  0  0  0  0  0  0  0  0  0  0  0
  147.3040  -49.7420  -27.0660 C   0  0  0  0  0  0  0  0  0  0  0  0
  148.4270  -51.9930  -28.3590 C   0  0  0  0  0  0  0  0  0  0  0  0
  146.5160  -50.6530  -27.7450 C   0  0  0  0  0  0  0  0  0  0  0  0
  147.0800  -51.7640  -28.3820 C   0  0  0  0  0  0  0  0  0  0  0  0
  148.2610  -50.2340  -23.5640 N   0  0  0  0  0  0  0  0  0  0  0  0
  147.0970  -51.1070  -23.3900 C   0  0  2  0  0  0  0  0  0  0  0  0
  145.9570  -50.5610  -22.4950 C   0  0  0  0  0  0  0  0  0  0  0  0
  144.7960  -50.6600  -22.8940 O   0  0  0  0  0  0  0  0  0  0  0  0
  147.5530  -52.4760  -22.8630 C   0  0  0  0  0  0  0  0  0  0  0  0
  148.1660  -53.3960  -23.9200 C   0  0  0  0  0  0  0  0  0  0  0  0
  149.6110  -53.0600  -24.2570 C   0  0  0  0  0  0  0  0  0  0  0  0
  150.0170  -51.8980  -24.2390 O   0  0  0  0  0  0  0  0  0  0  0  0
  150.3970  -54.0870  -24.5630 N   0  0  0  0  0  0  0  0  0  0  0  0
  145.3430  -31.4990  -31.0290 N   0  0  0  0  0  0  0  0  0  0  0  0
  144.5180  -31.0290  -29.9220 C   0  0  2  0  0  0  0  0  0  0  0  0
  144.3980  -29.5110  -29.9990 C   0  0  0  0  0  0  0  0  0  0  0  0
  145.4090  -28.8140  -30.0430 O   0  0  0  0  0  0  0  0  0  0  0  0
  145.1150  -31.4250  -28.5490 C   0  0  2  0  0  0  0  0  0  0  0  0
  144.9030  -32.8210  -28.3070 O   0  0  0  0  0  0  0  0  0  0  0  0
  144.4730  -30.6180  -27.4240 C   0  0  0  0  0  0  0  0  0  0  0  0
  150.1840  -31.3080  -31.0200 N   0  0  0  0  0  0  0  0  0  0  0  0
  150.1980  -32.7220  -31.4130 C   0  0  2  0  0  0  0  0  0  0  0  0
  149.6610  -33.6260  -30.3090 C   0  0  0  0  0  0  0  0  0  0  0  0
  150.1340  -33.5530  -29.1740 O   0  0  0  0  0  0  0  0  0  0  0  0
  151.6820  -32.9990  -31.6960 C   0  0  0  0  0  0  0  0  0  0  0  0
  152.4270  -31.8930  -31.0240 C   0  0  0  0  0  0  0  0  0  0  0  0
  151.5250  -30.7040  -31.0720 C   0  0  0  0  0  0  0  0  0  0  0  0
  148.6800  -34.4600  -30.6440 N   0  0  0  0  0  0  0  0  0  0  0  0
  148.0050  -35.2750  -29.6520 C   0  0  0  0  0  0  0  0  0  0  0  0
  148.1820  -36.7730  -29.8060 C   0  0  0  0  0  0  0  0  0  0  0  0
  149.2500  -37.2560  -30.1860 O   0  0  0  0  0  0  0  0  0  0  0  0
  147.1220  -37.5150  -29.5020 N   0  0  0  0  0  0  0  0  0  0  0  0
  147.1720  -38.9640  -29.5290 C   0  0  0  0  0  0  0  0  0  0  0  0
  147.1700  -39.5770  -28.1420 C   0  0  0  0  0  0  0  0  0  0  0  0
  146.9280  -38.8910  -27.1490 O   0  0  0  0  0  0  0  0  0  0  0  0
  147.4510  -40.8740  -28.0720 N   0  0  0  0  0  0  0  0  0  0  0  0
  147.4080  -41.6010  -26.8180 C   0  0  0  0  0  0  0  0  0  0  0  0
  146.2520  -42.5770  -26.8170 C   0  0  0  0  0  0  0  0  0  0  0  0
  146.3730  -43.7080  -26.3510 O   0  0  0  0  0  0  0  0  0  0  0  0
  145.1210  -42.1240  -27.3470 N   0  0  0  0  0  0  0  0  0  0  0  0
  143.9700  -42.9910  -27.5560 C   0  0  2  0  0  0  0  0  0  0  0  0
  144.1650  -43.7580  -28.8610 C   0  0  0  0  0  0  0  0  0  0  0  0
  143.9380  -43.2290  -29.9490 O   0  0  0  0  0  0  0  0  0  0  0  0
  142.6730  -42.1790  -27.5880 C   0  0  0  0  0  0  0  0  0  0  0  0
  141.4410  -43.0410  -27.4260 C   0  0  0  0  0  0  0  0  0  0  0  0
  141.4990  -44.2610  -27.5740 O   0  0  0  0  0  0  0  0  0  0  0  0
  140.3140  -42.4090  -27.1210 N   0  0  0  0  0  0  0  0  0  0  0  0
  144.5920  -45.0090  -28.7420 N   0  0  0  0  0  0  0  0  0  0  0  0
  144.9560  -45.8130  -29.9000 C   0  0  2  0  0  0  0  0  0  0  0  0
  143.7170  -46.1900  -30.7140 C   0  0  0  0  0  0  0  0  0  0  0  0
  143.8220  -46.5900  -31.8730 O   0  0  0  0  0  0  0  0  0  0  0  0
  145.7510  -47.0520  -29.4550 C   0  0  2  0  0  0  0  0  0  0  0  0
  146.8620  -46.6260  -28.4960 C   0  0  0  0  0  0  0  0  0  0  0  0
  146.3590  -47.7700  -30.6440 C   0  0  0  0  0  0  0  0  0  0  0  0
  147.8310  -45.6250  -29.0960 C   0  0  0  0  0  0  0  0  0  0  0  0
  2  1  1  6
  3  2  1  0
  4  3  2  0
  5  2  1  0
  6  5  1  0
  7  6  1  0
  8  7  1  0
  9  8  1  0
 10  3  1  0
 11 10  1  1
 12 11  1  0
 13 12  2  0
 14 11  1  0
 15 14  1  0
 14 16  1  6
 18 17  1  6
 19 18  1  0
 20 19  2  0
 21 18  1  0
 22 21  1  0
 23 19  1  0
 24 23  1  0
 25 24  1  0
 26 25  2  0
 27 25  1  0
 28 27  1  0
 29 28  1  0
 30 29  2  0
 31 29  1  0
 32 31  1  0
 33 32  1  0
 34 33  2  0
 32 35  1  6
 36 35  1  0
 37 36  2  0
 38 36  1  0
 39 33  1  0
 40 39  1  0
 41 40  1  0
 42 41  2  0
 40 43  1  1
 44 43  1  0
 45 44  1  0
 46 44  1  0
 47 41  1  0
 48 47  1  0
 49 48  1  0
 50 49  2  0
 48 51  1  1
 52 51  1  0
 53 52  1  0
 54 53  2  0
 55 53  1  0
 56 49  1  0
 57 56  1  1
 58 57  1  0
 59 58  2  0
 60 57  1  0
 61 60  1  0
 60 62  1  1
 63 61  1  0
 65 64  1  6
 66 65  1  0
 67 66  2  0
 68 65  1  0
 69 68  1  0
 70 69  2  0
 71 69  1  0
 72 66  1  0
 73 72  1  0
 74 73  1  0
 75 74  2  0
 73 76  1  1
 77 76  1  0
 78 77  1  0
 79 78  1  0
 80 74  1  0
 81 80  1  0
 82 81  1  0
 83 82  2  0
 81 84  1  6
 85 84  1  0
 86 85  2  0
 87 85  1  0
 88 86  1  0
 89 88  1  0
 89 87  2  0
 90 87  1  0
 91 89  1  0
 92 90  2  0
 93 92  1  0
 93 91  2  0
 94 82  1  0
 95 94  1  0
 96 95  1  0
 97 96  2  0
 95 98  1  1
 99 98  1  0
100 99  1  0
101100  2  0
102100  1  0
104103  1  6
105104  1  0
106105  2  0
107104  1  0
108107  1  0
107109  1  1
111110  1  0
111112  1  1
113112  2  0
114111  1  0
115114  1  0
116115  1  0
116110  1  0
117112  1  0
118117  1  0
119118  1  0
120119  2  0
121119  1  0
122121  1  0
123122  1  0
124123  2  0
125123  1  0
126125  1  0
127126  1  0
128127  2  0
129127  1  0
130129  1  0
131130  1  0
132131  2  0
130133  1  6
134133  1  0
135134  2  0
136134  1  0
137131  1  0
138137  1  1
139138  1  0
140139  2  0
141138  1  0
142141  1  0
141143  1  6
144142  1  0
M  END
$$$$
