
     RDKit          3D

139132  0  0  0  0  0  0  0  0999 V2000
   40.2350   11.5940  130.8110 N   0  0  0  0  0  0  0  0  0  0  0  0
   41.5800   11.8320  130.2870 C   0  0  2  0  0  0  0  0  0  0  0  0
   41.5630   12.2980  128.8390 C   0  0  0  0  0  0  0  0  0  0  0  0
   42.1070   13.3550  128.5030 O   0  0  0  0  0  0  0  0  0  0  0  0
   42.4260   10.5670  130.4120 C   0  0  0  0  0  0  0  0  0  0  0  0
   43.7440   10.5910  129.6620 C   0  0  0  0  0  0  0  0  0  0  0  0
   44.5300    8.9450  129.5640 S   0  0  0  0  0  0  0  0  0  0  0  0
   46.1940    9.3970  129.1000 C   0  0  0  0  0  0  0  0  0  0  0  0
   40.9170   11.5130  127.9880 N   0  0  0  0  0  0  0  0  0  0  0  0
   40.8230   11.8220  126.5680 C   0  0  2  0  0  0  0  0  0  0  0  0
   40.1210   13.1690  126.3510 C   0  0  0  0  0  0  0  0  0  0  0  0
   40.5790   14.0250  125.5850 O   0  0  0  0  0  0  0  0  0  0  0  0
   40.0840   10.7030  125.8320 C   0  0  0  0  0  0  0  0  0  0  0  0
   39.6660   11.0750  124.4370 C   0  0  0  0  0  0  0  0  0  0  0  0
   40.5620   10.9850  123.3950 C   0  0  0  0  0  0  0  0  0  0  0  0
   38.3800   11.5070  124.1580 C   0  0  0  0  0  0  0  0  0  0  0  0
   40.2140   11.3140  122.1140 C   0  0  0  0  0  0  0  0  0  0  0  0
   38.0070   11.8490  122.8590 C   0  0  0  0  0  0  0  0  0  0  0  0
   38.9400   11.7510  121.8380 C   0  0  0  0  0  0  0  0  0  0  0  0
   38.6200   12.0770  120.5350 O   0  0  0  0  0  0  0  0  0  0  0  0
   39.0120   13.3620  127.0510 N   0  0  0  0  0  0  0  0  0  0  0  0
   38.2330   14.5750  126.8690 C   0  0  2  0  0  0  0  0  0  0  0  0
   39.0060   15.8090  127.3230 C   0  0  0  0  0  0  0  0  0  0  0  0
   38.9990   16.8380  126.6420 O   0  0  0  0  0  0  0  0  0  0  0  0
   36.9030   14.4990  127.6240 C   0  0  0  0  0  0  0  0  0  0  0  0
   36.0500   15.7400  127.4220 C   0  0  0  0  0  0  0  0  0  0  0  0
   35.1350   16.2110  128.8990 S   0  0  0  0  0  0  0  0  0  0  0  0
   33.4460   15.9670  128.3230 C   0  0  0  0  0  0  0  0  0  0  0  0
   42.3060   16.2400  127.6400 N   0  0  0  0  0  0  0  0  0  0  0  0
   43.4420   16.5020  126.7600 C   0  0  2  0  0  0  0  0  0  0  0  0
   42.9580   17.1870  125.4790 C   0  0  0  0  0  0  0  0  0  0  0  0
   43.5130   18.2130  125.0290 O   0  0  0  0  0  0  0  0  0  0  0  0
   44.1900   15.2000  126.4410 C   0  0  0  0  0  0  0  0  0  0  0  0
   44.9980   14.5660  127.5890 C   0  0  0  0  0  0  0  0  0  0  0  0
   45.4770   13.1900  127.2100 C   0  0  0  0  0  0  0  0  0  0  0  0
   46.1760   15.4210  128.0460 C   0  0  0  0  0  0  0  0  0  0  0  0
   41.8880   16.6260  124.9210 N   0  0  0  0  0  0  0  0  0  0  0  0
   41.2990   17.1370  123.6930 C   0  0  2  0  0  0  0  0  0  0  0  0
   40.8630   18.6090  123.8220 C   0  0  0  0  0  0  0  0  0  0  0  0
   41.1410   19.4570  122.9480 O   0  0  0  0  0  0  0  0  0  0  0  0
   40.1060   16.2720  123.3300 C   0  0  0  0  0  0  0  0  0  0  0  0
   40.0370   15.9690  121.8680 C   0  0  0  0  0  0  0  0  0  0  0  0
   41.2380   15.1920  121.4260 C   0  0  0  0  0  0  0  0  0  0  0  0
   41.6210   14.2880  122.1810 O   0  0  0  0  0  0  0  0  0  0  0  0
   41.8000   15.4970  120.3480 O   0  0  0  0  0  0  0  0  0  0  0  0
   43.9790   21.0600  124.3070 N   0  0  0  0  0  0  0  0  0  0  0  0
   44.6130   21.3160  123.0290 C   0  0  2  0  0  0  0  0  0  0  0  0
   43.7850   22.2450  122.1320 C   0  0  0  0  0  0  0  0  0  0  0  0
   44.3220   23.2500  121.6190 O   0  0  0  0  0  0  0  0  0  0  0  0
   44.8970   20.0040  122.3020 C   0  0  0  0  0  0  0  0  0  0  0  0
   45.7670   20.2000  121.0800 C   0  0  0  0  0  0  0  0  0  0  0  0
   45.4320   19.7550  119.9830 O   0  0  0  0  0  0  0  0  0  0  0  0
   46.8860   20.8920  121.2610 N   0  0  0  0  0  0  0  0  0  0  0  0
   59.3460   12.9400  119.1490 N   0  0  0  0  0  0  0  0  0  0  0  0
   58.0870   12.5390  118.5390 C   0  0  2  0  0  0  0  0  0  0  0  0
   58.0360   13.0890  117.1340 C   0  0  0  0  0  0  0  0  0  0  0  0
   57.6860   14.2350  116.9470 O   0  0  0  0  0  0  0  0  0  0  0  0
   56.8900   13.0590  119.3410 C   0  0  2  0  0  0  0  0  0  0  0  0
   56.9560   12.5240  120.7690 C   0  0  0  0  0  0  0  0  0  0  0  0
   55.5730   12.7220  118.6480 C   0  0  0  0  0  0  0  0  0  0  0  0
   56.0440   13.2240  121.7260 C   0  0  0  0  0  0  0  0  0  0  0  0
   52.6430   16.0680  115.7810 N   0  0  0  0  0  0  0  0  0  0  0  0
   51.2750   15.5950  115.5550 C   0  0  2  0  0  0  0  0  0  0  0  0
   50.3470   16.6620  114.9760 C   0  0  0  0  0  0  0  0  0  0  0  0
   49.4830   16.3620  114.1620 O   0  0  0  0  0  0  0  0  0  0  0  0
   50.6740   15.0600  116.8590 C   0  0  0  0  0  0  0  0  0  0  0  0
   51.4990   13.9820  117.5280 C   0  0  0  0  0  0  0  0  0  0  0  0
   51.4220   14.0080  119.0670 C   0  0  0  0  0  0  0  0  0  0  0  0
   51.2560   15.0730  119.6990 O   0  0  0  0  0  0  0  0  0  0  0  0
   51.5540   12.8140  119.6760 N   0  0  0  0  0  0  0  0  0  0  0  0
   50.5270   17.8960  115.4230 N   0  0  0  0  0  0  0  0  0  0  0  0
   49.6930   19.0150  115.0080 C   0  0  2  0  0  0  0  0  0  0  0  0
   49.6800   19.1330  113.5010 C   0  0  0  0  0  0  0  0  0  0  0  0
   48.6860   19.5560  112.9230 O   0  0  0  0  0  0  0  0  0  0  0  0
   50.2010   20.3790  115.5880 C   0  0  2  0  0  0  0  0  0  0  0  0
   51.0370   20.1810  116.8660 C   0  0  0  0  0  0  0  0  0  0  0  0
   49.0620   21.3450  115.8010 C   0  0  0  0  0  0  0  0  0  0  0  0
   50.2490   19.6500  118.1000 C   0  0  0  0  0  0  0  0  0  0  0  0
   49.5520   16.8160  111.3210 N   0  0  0  0  0  0  0  0  0  0  0  0
   48.7270   15.8000  110.6690 C   0  0  2  0  0  0  0  0  0  0  0  0
   47.2510   16.1940  110.5120 C   0  0  0  0  0  0  0  0  0  0  0  0
   46.5880   15.7300  109.5950 O   0  0  0  0  0  0  0  0  0  0  0  0
   48.7900   14.4610  111.3950 C   0  0  0  0  0  0  0  0  0  0  0  0
   50.1640   13.8240  111.4440 C   0  0  0  0  0  0  0  0  0  0  0  0
   50.1840   12.6420  112.4170 C   0  0  0  0  0  0  0  0  0  0  0  0
   51.3010   12.7330  113.4180 C   0  0  0  0  0  0  0  0  0  0  0  0
   51.6040   11.3860  113.9640 N   0  0  0  0  0  0  0  0  0  0  0  0
   42.6130   21.1890  112.6900 N   0  0  0  0  0  0  0  0  0  0  0  0
   43.3460   22.2260  113.4200 C   0  0  2  0  0  0  0  0  0  0  0  0
   43.7150   23.3600  112.4760 C   0  0  0  0  0  0  0  0  0  0  0  0
   43.6310   24.5400  112.8510 O   0  0  0  0  0  0  0  0  0  0  0  0
   44.6100   21.6820  114.0720 C   0  0  0  0  0  0  0  0  0  0  0  0
   44.4010   20.6340  115.1340 C   0  0  0  0  0  0  0  0  0  0  0  0
   43.2000   20.5310  115.8270 C   0  0  0  0  0  0  0  0  0  0  0  0
   45.4300   19.7450  115.4550 C   0  0  0  0  0  0  0  0  0  0  0  0
   43.0260   19.5530  116.8110 C   0  0  0  0  0  0  0  0  0  0  0  0
   45.2770   18.7780  116.4320 C   0  0  0  0  0  0  0  0  0  0  0  0
   44.0790   18.6790  117.1110 C   0  0  0  0  0  0  0  0  0  0  0  0
   43.9520   17.6930  118.0780 O   0  0  0  0  0  0  0  0  0  0  0  0
   49.6440   20.8470  128.9390 N   0  0  0  0  0  0  0  0  0  0  0  0
   49.8840   19.7980  127.9490 C   0  0  2  0  0  0  0  0  0  0  0  0
   51.3570   19.3680  127.8910 C   0  0  0  0  0  0  0  0  0  0  0  0
   51.6740   18.1730  127.7370 O   0  0  0  0  0  0  0  0  0  0  0  0
   49.4220   20.2720  126.5710 C   0  0  0  0  0  0  0  0  0  0  0  0
   48.1110   19.7380  125.9840 C   0  0  0  0  0  0  0  0  0  0  0  0
   47.1580   19.2980  127.0590 C   0  0  0  0  0  0  0  0  0  0  0  0
   47.4660   20.7690  125.0980 C   0  0  0  0  0  0  0  0  0  0  0  0
   52.3630   17.4600  130.9810 N   0  0  0  0  0  0  0  0  0  0  0  0
   51.7940   16.1240  130.8080 C   0  0  2  0  0  0  0  0  0  0  0  0
   52.6210   15.2230  129.8790 C   0  0  0  0  0  0  0  0  0  0  0  0
   52.8490   14.0570  130.2010 O   0  0  0  0  0  0  0  0  0  0  0  0
   50.3560   16.2300  130.2800 C   0  0  0  0  0  0  0  0  0  0  0  0
   49.7620   14.9520  130.1850 O   0  0  0  0  0  0  0  0  0  0  0  0
   53.0350   15.7460  128.7230 N   0  0  0  0  0  0  0  0  0  0  0  0
   53.9350   15.0130  127.8250 C   0  0  2  0  0  0  0  0  0  0  0  0
   55.2000   14.5310  128.5690 C   0  0  0  0  0  0  0  0  0  0  0  0
   55.5550   13.3180  128.5620 O   0  0  0  0  0  0  0  0  0  0  0  0
   54.3550   15.9000  126.6490 C   0  0  0  0  0  0  0  0  0  0  0  0
   53.9730   15.5740  125.2040 C   0  0  0  0  0  0  0  0  0  0  0  0
   53.7360   14.0760  125.0490 C   0  0  0  0  0  0  0  0  0  0  0  0
   52.7630   16.4150  124.7150 C   0  0  0  0  0  0  0  0  0  0  0  0
   54.5110   11.8120  131.0430 N   0  0  0  0  0  0  0  0  0  0  0  0
   54.2370   10.4900  130.4620 C   0  0  2  0  0  0  0  0  0  0  0  0
   55.5290    9.8880  129.8960 C   0  0  0  0  0  0  0  0  0  0  0  0
   55.5610    8.7070  129.5270 O   0  0  0  0  0  0  0  0  0  0  0  0
   53.1410   10.5480  129.3680 C   0  0  0  0  0  0  0  0  0  0  0  0
   53.6060   11.0890  128.1390 O   0  0  0  0  0  0  0  0  0  0  0  0
   56.5860   10.7020  129.8080 N   0  0  0  0  0  0  0  0  0  0  0  0
   57.9000   10.1390  129.4480 C   0  0  2  0  0  0  0  0  0  0  0  0
   58.7810    9.8390  130.6580 C   0  0  0  0  0  0  0  0  0  0  0  0
   59.9540    9.4990  130.5090 O   0  0  0  0  0  0  0  0  0  0  0  0
   58.6390   11.0470  128.4660 C   0  0  0  0  0  0  0  0  0  0  0  0
   58.2320   10.8000  127.0330 C   0  0  0  0  0  0  0  0  0  0  0  0
   56.9580   11.1320  126.5710 C   0  0  0  0  0  0  0  0  0  0  0  0
   59.1130   10.2110  126.1470 C   0  0  0  0  0  0  0  0  0  0  0  0
   56.5940   10.8970  125.2550 C   0  0  0  0  0  0  0  0  0  0  0  0
   58.7620    9.9770  124.8430 C   0  0  0  0  0  0  0  0  0  0  0  0
   57.5040   10.3200  124.3980 C   0  0  0  0  0  0  0  0  0  0  0  0
   57.1740   10.0720  123.0880 O   0  0  0  0  0  0  0  0  0  0  0  0
  2  1  1  6
  3  2  1  0
  4  3  2  0
  5  2  1  0
  6  5  1  0
  7  6  1  0
  8  7  1  0
  9  3  1  0
 10  9  1  0
 11 10  1  0
 12 11  2  0
 10 13  1  6
 14 13  1  0
 15 14  2  0
 16 14  1  0
 17 15  1  0
 18 16  2  0
 19 18  1  0
 19 17  2  0
 20 19  1  0
 21 11  1  0
 22 21  1  0
 23 22  1  0
 24 23  2  0
 22 25  1  1
 26 25  1  0
 27 26  1  0
 28 27  1  0
 30 29  1  1
 31 30  1  0
 32 31  2  0
 33 30  1  0
 34 33  1  0
 35 34  1  0
 36 34  1  0
 37 31  1  0
 38 37  1  0
 39 38  1  0
 40 39  2  0
 38 41  1  1
 42 41  1  0
 43 42  1  0
 44 43  2  0
 45 43  1  0
 47 46  1  1
 48 47  1  0
 49 48  2  0
 50 47  1  0
 51 50  1  0
 52 51  2  0
 53 51  1  0
 55 54  1  1
 56 55  1  0
 57 56  2  0
 58 55  1  0
 59 58  1  0
 58 60  1  6
 61 59  1  0
 63 62  1  1
 64 63  1  0
 65 64  2  0
 66 63  1  0
 67 66  1  0
 68 67  1  0
 69 68  2  0
 70 68  1  0
 71 64  1  0
 72 71  1  6
 73 72  1  0
 74 73  2  0
 75 72  1  0
 76 75  1  0
 75 77  1  1
 78 76  1  0
 80 79  1  1
 81 80  1  0
 82 81  2  0
 83 80  1  0
 84 83  1  0
 85 84  1  0
 86 85  1  0
 87 86  1  0
 89 88  1  6
 90 89  1  0
 91 90  2  0
 92 89  1  0
 93 92  1  0
 94 93  2  0
 95 93  1  0
 96 94  1  0
 97 95  2  0
 98 96  2  0
 98 97  1  0
 99 98  1  0
101100  1  1
102101  1  0
103102  2  0
104101  1  0
105104  1  0
106105  1  0
107105  1  0
109108  1  6
110109  1  0
111110  2  0
112109  1  0
113112  1  0
114110  1  0
115114  1  0
116115  1  0
117116  2  0
115118  1  6
119118  1  0
120119  1  0
121119  1  0
123122  1  6
124123  1  0
125124  2  0
126123  1  0
127126  1  0
128124  1  0
129128  1  0
130129  1  0
131130  2  0
129132  1  6
133132  1  0
134133  2  0
135133  1  0
136134  1  0
137135  2  0
138137  1  0
138136  2  0
139138  1  0
M  END
$$$$
