
     RDKit          3D

121117  0  0  0  0  0  0  0  0999 V2000
   83.0250    5.9610  -10.1560 N   0  0  0  0  0  0  0  0  0  0  0  0
   82.9790    6.9580  -11.2160 C   0  0  2  0  0  0  0  0  0  0  0  0
   81.7720    7.8710  -11.0470 C   0  0  0  0  0  0  0  0  0  0  0  0
   80.6640    7.4180  -10.7470 O   0  0  0  0  0  0  0  0  0  0  0  0
   82.9230    6.2760  -12.5810 C   0  0  0  0  0  0  0  0  0  0  0  0
   82.8560    7.2390  -13.6190 O   0  0  0  0  0  0  0  0  0  0  0  0
   81.9940    9.1720  -11.2510 N   0  0  0  0  0  0  0  0  0  0  0  0
   80.9100   10.1430  -11.1650 C   0  0  2  0  0  0  0  0  0  0  0  0
   79.8860    9.9880  -12.2820 C   0  0  0  0  0  0  0  0  0  0  0  0
   78.7980   10.5660  -12.1810 O   0  0  0  0  0  0  0  0  0  0  0  0
   81.4760   11.5640  -11.1800 C   0  0  0  0  0  0  0  0  0  0  0  0
   81.8490   11.9730   -9.8760 O   0  0  0  0  0  0  0  0  0  0  0  0
   80.1990    9.2380  -13.3320 N   0  0  0  0  0  0  0  0  0  0  0  0
   79.2580    8.9640  -14.3920 C   0  0  0  0  0  0  0  0  0  0  0  0
   79.9560    8.9100  -15.7330 C   0  0  0  0  0  0  0  0  0  0  0  0
   81.1830    8.9380  -15.8230 O   0  0  0  0  0  0  0  0  0  0  0  0
   79.1500    8.8280  -16.7840 N   0  0  0  0  0  0  0  0  0  0  0  0
   79.6230    8.7450  -18.1510 C   0  0  0  0  0  0  0  0  0  0  0  0
   79.1670    7.4610  -18.8110 C   0  0  0  0  0  0  0  0  0  0  0  0
   78.3140    6.7310  -18.2990 O   0  0  0  0  0  0  0  0  0  0  0  0
   79.7520    7.1870  -19.9760 N   0  0  0  0  0  0  0  0  0  0  0  0
   79.4410    5.9610  -20.6940 C   0  0  2  0  0  0  0  0  0  0  0  0
   79.8180    4.7440  -19.8550 C   0  0  0  0  0  0  0  0  0  0  0  0
   80.6510    4.8100  -18.9460 O   0  0  0  0  0  0  0  0  0  0  0  0
   80.1760    5.9190  -22.0350 C   0  0  0  0  0  0  0  0  0  0  0  0
   79.5210    6.7900  -23.0920 C   0  0  0  0  0  0  0  0  0  0  0  0
   78.3650    7.2160  -22.8870 O   0  0  0  0  0  0  0  0  0  0  0  0
   80.1620    7.0380  -24.1360 O   0  0  0  0  0  0  0  0  0  0  0  0
   79.1830    3.6130  -20.1720 N   0  0  0  0  0  0  0  0  0  0  0  0
   79.4500    2.3830  -19.4330 C   0  0  2  0  0  0  0  0  0  0  0  0
   80.9160    1.9830  -19.5100 C   0  0  0  0  0  0  0  0  0  0  0  0
   81.4420    1.3710  -18.5730 O   0  0  0  0  0  0  0  0  0  0  0  0
   78.5690    1.2500  -19.9610 C   0  0  0  0  0  0  0  0  0  0  0  0
   77.1940    1.0910  -19.3120 C   0  0  0  0  0  0  0  0  0  0  0  0
   76.3730    0.0550  -20.0610 C   0  0  0  0  0  0  0  0  0  0  0  0
   77.3320    0.6990  -17.8460 C   0  0  0  0  0  0  0  0  0  0  0  0
   83.5070    3.7520  -19.2330 N   0  0  0  0  0  0  0  0  0  0  0  0
   84.2950    4.4410  -18.2140 C   0  0  2  0  0  0  0  0  0  0  0  0
   83.9010    3.9700  -16.8210 C   0  0  0  0  0  0  0  0  0  0  0  0
   84.7350    3.4840  -16.0480 O   0  0  0  0  0  0  0  0  0  0  0  0
   84.1250    5.9630  -18.3570 C   0  0  2  0  0  0  0  0  0  0  0  0
   84.7860    6.4480  -19.6460 C   0  0  0  0  0  0  0  0  0  0  0  0
   84.7270    6.6970  -17.1730 C   0  0  0  0  0  0  0  0  0  0  0  0
   84.2640    7.7720  -20.1260 C   0  0  0  0  0  0  0  0  0  0  0  0
   82.4700    2.9570  -29.3880 N   0  0  0  0  0  0  0  0  0  0  0  0
   83.7960    2.8030  -29.9690 C   0  0  2  0  0  0  0  0  0  0  0  0
   84.7470    3.8760  -29.4570 C   0  0  0  0  0  0  0  0  0  0  0  0
   84.3890    5.0530  -29.3530 O   0  0  0  0  0  0  0  0  0  0  0  0
   83.7190    2.8640  -31.4940 C   0  0  0  0  0  0  0  0  0  0  0  0
   82.9830    1.6940  -32.1260 C   0  0  0  0  0  0  0  0  0  0  0  0
   83.0780    1.6960  -33.9250 S   0  0  0  0  0  0  0  0  0  0  0  0
   82.1320    3.1650  -34.3110 C   0  0  0  0  0  0  0  0  0  0  0  0
   85.9700    3.4560  -29.1350 N   0  0  0  0  0  0  0  0  0  0  0  0
   87.0430    4.3710  -28.7700 C   0  0  2  0  0  0  0  0  0  0  0  0
   87.8840    4.7840  -29.9670 C   0  0  0  0  0  0  0  0  0  0  0  0
   88.5780    5.8050  -29.9020 O   0  0  0  0  0  0  0  0  0  0  0  0
   87.9560    3.7210  -27.7270 C   0  0  0  0  0  0  0  0  0  0  0  0
   88.5820    2.4500  -28.2180 C   0  0  0  0  0  0  0  0  0  0  0  0
   88.1390    1.1790  -27.9950 C   0  0  0  0  0  0  0  0  0  0  0  0
   89.7570    2.3280  -29.0300 C   0  0  0  0  0  0  0  0  0  0  0  0
   88.9660    0.2740  -28.6140 N   0  0  0  0  0  0  0  0  0  0  0  0
   89.9680    0.9540  -29.2560 C   0  0  0  0  0  0  0  0  0  0  0  0
   90.6520    3.2490  -29.5850 C   0  0  0  0  0  0  0  0  0  0  0  0
   91.0380    0.4770  -30.0120 C   0  0  0  0  0  0  0  0  0  0  0  0
   91.7130    2.7730  -30.3360 C   0  0  0  0  0  0  0  0  0  0  0  0
   91.8970    1.4000  -30.5420 C   0  0  0  0  0  0  0  0  0  0  0  0
   84.1280    8.1210  -32.8120 N   0  0  0  0  0  0  0  0  0  0  0  0
   82.9020    8.3620  -32.0600 C   0  0  2  0  0  0  0  0  0  0  0  0
   81.7640    7.6320  -32.7650 C   0  0  0  0  0  0  0  0  0  0  0  0
   81.3810    7.9890  -33.8820 O   0  0  0  0  0  0  0  0  0  0  0  0
   82.6080    9.8570  -31.9280 C   0  0  0  0  0  0  0  0  0  0  0  0
   81.4250   10.0700  -31.0290 C   0  0  0  0  0  0  0  0  0  0  0  0
   83.8260   10.6000  -31.3830 C   0  0  0  0  0  0  0  0  0  0  0  0
   90.8700   10.5050  -12.0780 N   0  0  0  0  0  0  0  0  0  0  0  0
   90.3440   11.8380  -12.3250 C   0  0  2  0  0  0  0  0  0  0  0  0
   89.8960   12.4390  -11.0030 C   0  0  0  0  0  0  0  0  0  0  0  0
   89.0980   11.8360  -10.2790 O   0  0  0  0  0  0  0  0  0  0  0  0
   89.1790   11.7880  -13.3240 C   0  0  0  0  0  0  0  0  0  0  0  0
   89.1190   12.8310  -14.4450 C   0  0  0  0  0  0  0  0  0  0  0  0
   90.4770   13.0920  -15.0910 C   0  0  0  0  0  0  0  0  0  0  0  0
   88.1390   12.3640  -15.5060 C   0  0  0  0  0  0  0  0  0  0  0  0
   87.7690    6.6390  -10.8590 N   0  0  0  0  0  0  0  0  0  0  0  0
   88.2680    5.9440  -12.0450 C   0  0  2  0  0  0  0  0  0  0  0  0
   87.7490    6.5900  -13.3130 C   0  0  0  0  0  0  0  0  0  0  0  0
   86.6250    7.0940  -13.3690 O   0  0  0  0  0  0  0  0  0  0  0  0
   87.7010    4.5270  -11.8940 C   0  0  0  0  0  0  0  0  0  0  0  0
   87.0460    4.5010  -10.5600 C   0  0  0  0  0  0  0  0  0  0  0  0
   86.6790    5.8870  -10.2280 C   0  0  0  0  0  0  0  0  0  0  0  0
   88.5800    6.5530  -14.3470 N   0  0  0  0  0  0  0  0  0  0  0  0
   88.2070    7.1560  -15.6160 C   0  0  2  0  0  0  0  0  0  0  0  0
   89.0250    6.5170  -16.7290 C   0  0  0  0  0  0  0  0  0  0  0  0
   89.8390    5.6180  -16.4970 O   0  0  0  0  0  0  0  0  0  0  0  0
   88.4030    8.6730  -15.5760 C   0  0  0  0  0  0  0  0  0  0  0  0
   87.7730    9.2880  -16.6850 O   0  0  0  0  0  0  0  0  0  0  0  0
   88.7970    6.9970  -17.9420 N   0  0  0  0  0  0  0  0  0  0  0  0
   89.4600    6.4930  -19.1340 C   0  0  0  0  0  0  0  0  0  0  0  0
   88.6490    6.8550  -20.3670 C   0  0  0  0  0  0  0  0  0  0  0  0
   87.9070    7.8380  -20.3680 O   0  0  0  0  0  0  0  0  0  0  0  0
   88.8080    6.0400  -21.4060 N   0  0  0  0  0  0  0  0  0  0  0  0
   88.0690    6.1940  -22.6420 C   0  0  0  0  0  0  0  0  0  0  0  0
   88.8870    6.7390  -23.7920 C   0  0  0  0  0  0  0  0  0  0  0  0
   88.4960    6.5550  -24.9530 O   0  0  0  0  0  0  0  0  0  0  0  0
   90.0030    7.4070  -23.5090 N   0  0  0  0  0  0  0  0  0  0  0  0
   90.9340    7.8590  -24.5400 C   0  0  2  0  0  0  0  0  0  0  0  0
   92.1340    6.9200  -24.4990 C   0  0  0  0  0  0  0  0  0  0  0  0
   93.0350    7.0810  -23.6710 O   0  0  0  0  0  0  0  0  0  0  0  0
   91.3440    9.3090  -24.3130 C   0  0  0  0  0  0  0  0  0  0  0  0
   92.2240    9.8470  -25.4250 C   0  0  0  0  0  0  0  0  0  0  0  0
   92.6280    9.0580  -26.3050 O   0  0  0  0  0  0  0  0  0  0  0  0
   92.5180   11.0600  -25.4150 O   0  0  0  0  0  0  0  0  0  0  0  0
   94.6830    6.6930  -26.1340 N   0  0  0  0  0  0  0  0  0  0  0  0
   96.0010    7.3000  -26.2730 C   0  0  2  0  0  0  0  0  0  0  0  0
   96.6900    7.4110  -24.9200 C   0  0  0  0  0  0  0  0  0  0  0  0
   97.9060    7.2100  -24.8170 O   0  0  0  0  0  0  0  0  0  0  0  0
   95.8840    8.6690  -26.9400 C   0  0  0  0  0  0  0  0  0  0  0  0
   95.3690    8.6100  -28.3740 C   0  0  0  0  0  0  0  0  0  0  0  0
   95.4960    9.9620  -29.0570 C   0  0  0  0  0  0  0  0  0  0  0  0
   95.0460   11.0450  -28.1860 N   0  0  0  0  0  0  0  0  0  0  0  0
   93.8270   11.5790  -28.1940 C   0  0  0  0  0  0  0  0  0  0  0  0
   92.8990   11.1490  -29.0390 N   0  0  0  0  0  0  0  0  0  0  0  0
   93.5370   12.5570  -27.3480 N   0  0  0  0  0  0  0  0  0  0  0  0
  2  1  1  1
  3  2  1  0
  4  3  2  0
  5  2  1  0
  6  5  1  0
  7  3  1  0
  8  7  1  0
  9  8  1  0
 10  9  2  0
  8 11  1  6
 12 11  1  0
 13  9  1  0
 14 13  1  0
 15 14  1  0
 16 15  2  0
 17 15  1  0
 18 17  1  0
 19 18  1  0
 20 19  2  0
 21 19  1  0
 22 21  1  0
 23 22  1  0
 24 23  2  0
 22 25  1  6
 26 25  1  0
 27 26  2  0
 28 26  1  0
 29 23  1  0
 30 29  1  0
 31 30  1  0
 32 31  2  0
 30 33  1  6
 34 33  1  0
 35 34  1  0
 36 34  1  0
 38 37  1  6
 39 38  1  0
 40 39  2  0
 41 38  1  0
 42 41  1  0
 41 43  1  1
 44 42  1  0
 46 45  1  1
 47 46  1  0
 48 47  2  0
 49 46  1  0
 50 49  1  0
 51 50  1  0
 52 51  1  0
 53 47  1  0
 54 53  1  0
 55 54  1  0
 56 55  2  0
 54 57  1  1
 58 57  1  0
 59 58  2  0
 60 58  1  0
 61 59  1  0
 62 61  1  0
 62 60  2  0
 63 60  1  0
 64 62  1  0
 65 63  2  0
 66 65  1  0
 66 64  2  0
 68 67  1  6
 69 68  1  0
 70 69  2  0
 71 68  1  0
 72 71  1  0
 73 71  1  0
 75 74  1  1
 76 75  1  0
 77 76  2  0
 78 75  1  0
 79 78  1  0
 80 79  1  0
 81 79  1  0
 83 82  1  0
 83 84  1  6
 85 84  2  0
 86 83  1  0
 87 86  1  0
 88 87  1  0
 88 82  1  0
 89 84  1  0
 90 89  1  0
 91 90  1  0
 92 91  2  0
 90 93  1  1
 94 93  1  0
 95 91  1  0
 96 95  1  0
 97 96  1  0
 98 97  2  0
 99 97  1  0
100 99  1  0
101100  1  0
102101  2  0
103101  1  0
104103  1  0
105104  1  0
106105  2  0
104107  1  1
108107  1  0
109108  2  0
110108  1  0
112111  1  1
113112  1  0
114113  2  0
115112  1  0
116115  1  0
117116  1  0
118117  1  0
119118  1  0
120119  1  0
121119  2  0
M  END
$$$$
