
     RDKit          3D

 66 63  0  0  0  0  0  0  0  0999 V2000
   99.0630   18.4160  -15.6860 N   0  0  0  0  0  0  0  0  0  0  0  0
   98.8880   19.4470  -14.6660 C   0  0  2  0  0  0  0  0  0  0  0  0
   97.9180   18.9010  -13.6270 C   0  0  0  0  0  0  0  0  0  0  0  0
   96.7390   18.6960  -13.9310 O   0  0  0  0  0  0  0  0  0  0  0  0
   98.3700   20.7420  -15.2790 C   0  0  0  0  0  0  0  0  0  0  0  0
   98.3520   21.8930  -14.2900 C   0  0  0  0  0  0  0  0  0  0  0  0
   98.1800   21.6920  -13.0870 O   0  0  0  0  0  0  0  0  0  0  0  0
   98.5320   23.1080  -14.7940 N   0  0  0  0  0  0  0  0  0  0  0  0
   96.9080   20.4680  -10.8930 N   0  0  0  0  0  0  0  0  0  0  0  0
   95.9540   21.5170  -10.5550 C   0  0  2  0  0  0  0  0  0  0  0  0
   94.8380   21.6160  -11.5820 C   0  0  0  0  0  0  0  0  0  0  0  0
   93.7930   22.2100  -11.2940 O   0  0  0  0  0  0  0  0  0  0  0  0
   96.6710   22.8630  -10.4310 C   0  0  0  0  0  0  0  0  0  0  0  0
   95.0400   21.0560  -12.7710 N   0  0  0  0  0  0  0  0  0  0  0  0
   94.0000   20.9800  -13.7910 C   0  0  2  0  0  0  0  0  0  0  0  0
   93.2150   19.6940  -13.5610 C   0  0  0  0  0  0  0  0  0  0  0  0
   93.6460   18.6090  -13.9610 O   0  0  0  0  0  0  0  0  0  0  0  0
   94.6170   21.0190  -15.1820 C   0  0  0  0  0  0  0  0  0  0  0  0
   93.5910   21.2470  -16.2600 C   0  0  0  0  0  0  0  0  0  0  0  0
   92.3990   20.9590  -16.0190 O   0  0  0  0  0  0  0  0  0  0  0  0
   93.9710   21.7160  -17.3540 O   0  0  0  0  0  0  0  0  0  0  0  0
   92.0510   19.8140  -12.9180 N   0  0  0  0  0  0  0  0  0  0  0  0
   91.2620   18.6330  -12.5870 C   0  0  2  0  0  0  0  0  0  0  0  0
   90.8120   17.8800  -13.8300 C   0  0  0  0  0  0  0  0  0  0  0  0
   90.5120   16.6840  -13.7420 O   0  0  0  0  0  0  0  0  0  0  0  0
   90.0420   19.0310  -11.7580 C   0  0  0  0  0  0  0  0  0  0  0  0
   88.8240   19.3130  -12.6150 C   0  0  0  0  0  0  0  0  0  0  0  0
   87.9620   18.4510  -12.7870 O   0  0  0  0  0  0  0  0  0  0  0  0
   88.7520   20.5210  -13.1670 N   0  0  0  0  0  0  0  0  0  0  0  0
   90.7590   18.5460  -14.9810 N   0  0  0  0  0  0  0  0  0  0  0  0
   90.3520   17.9010  -16.2220 C   0  0  2  0  0  0  0  0  0  0  0  0
   91.4700   17.0950  -16.8650 C   0  0  0  0  0  0  0  0  0  0  0  0
   91.2310   16.4480  -17.8900 O   0  0  0  0  0  0  0  0  0  0  0  0
   89.8410   18.9490  -17.2140 C   0  0  0  0  0  0  0  0  0  0  0  0
   90.4070   13.6270  -10.7010 N   0  0  0  0  0  0  0  0  0  0  0  0
   90.2140   14.2530   -9.4030 C   0  0  2  0  0  0  0  0  0  0  0  0
   88.9470   15.1000   -9.3910 C   0  0  0  0  0  0  0  0  0  0  0  0
   88.5950   15.7320  -10.3910 O   0  0  0  0  0  0  0  0  0  0  0  0
   91.4250   15.1200   -9.0550 C   0  0  0  0  0  0  0  0  0  0  0  0
   91.4020   15.6940   -7.6510 C   0  0  0  0  0  0  0  0  0  0  0  0
   92.6850   16.4470   -7.3430 C   0  0  0  0  0  0  0  0  0  0  0  0
   92.9260   17.5320   -8.2890 N   0  0  0  0  0  0  0  0  0  0  0  0
   92.3650   18.7360   -8.2130 C   0  0  0  0  0  0  0  0  0  0  0  0
   91.5180   19.0220   -7.2330 N   0  0  0  0  0  0  0  0  0  0  0  0
   92.6500   19.6570   -9.1240 N   0  0  0  0  0  0  0  0  0  0  0  0
   88.2640   15.1060   -8.2490 N   0  0  0  0  0  0  0  0  0  0  0  0
   87.0850   15.9440   -8.0810 C   0  0  2  0  0  0  0  0  0  0  0  0
   87.4890   17.4120   -8.0350 C   0  0  0  0  0  0  0  0  0  0  0  0
   88.4040   17.7930   -7.2980 O   0  0  0  0  0  0  0  0  0  0  0  0
   86.3380   15.5600   -6.8060 C   0  0  0  0  0  0  0  0  0  0  0  0
   85.3740   14.4120   -7.0200 C   0  0  0  0  0  0  0  0  0  0  0  0
   84.4260   14.2740   -6.2200 O   0  0  0  0  0  0  0  0  0  0  0  0
   85.5600   13.6510   -7.9920 O   0  0  0  0  0  0  0  0  0  0  0  0
   86.8020   18.2380   -8.8260 N   0  0  0  0  0  0  0  0  0  0  0  0
   87.1010   19.6510   -8.8950 C   0  0  0  0  0  0  0  0  0  0  0  0
   86.2260   20.4760   -7.9680 C   0  0  0  0  0  0  0  0  0  0  0  0
   85.4290   19.9610   -7.1840 O   0  0  0  0  0  0  0  0  0  0  0  0
   86.3930   21.7920   -8.0680 N   0  0  0  0  0  0  0  0  0  0  0  0
   85.5800   22.7220   -7.3120 C   0  0  0  0  0  0  0  0  0  0  0  0
   86.0870   22.9360   -5.8990 C   0  0  0  0  0  0  0  0  0  0  0  0
   87.1160   22.4070   -5.4740 O   0  0  0  0  0  0  0  0  0  0  0  0
   85.3340   23.7460   -5.1570 N   0  0  0  0  0  0  0  0  0  0  0  0
   85.6710   24.0190   -3.7670 C   0  0  2  0  0  0  0  0  0  0  0  0
   85.6330   22.7310   -2.9550 C   0  0  0  0  0  0  0  0  0  0  0  0
   84.7370   21.8990   -3.1190 O   0  0  0  0  0  0  0  0  0  0  0  0
   84.7030   25.0460   -3.1790 C   0  0  0  0  0  0  0  0  0  0  0  0
  2  1  1  6
  3  2  1  0
  4  3  2  0
  5  2  1  0
  6  5  1  0
  7  6  2  0
  8  6  1  0
 10  9  1  0
 11 10  1  0
 12 11  2  0
 10 13  1  6
 14 11  1  0
 15 14  1  0
 16 15  1  0
 17 16  2  0
 15 18  1  6
 19 18  1  0
 20 19  2  0
 21 19  1  0
 22 16  1  0
 23 22  1  0
 24 23  1  0
 25 24  2  0
 23 26  1  6
 27 26  1  0
 28 27  2  0
 29 27  1  0
 30 24  1  0
 31 30  1  0
 32 31  1  0
 33 32  2  0
 31 34  1  6
 36 35  1  6
 37 36  1  0
 38 37  2  0
 39 36  1  0
 40 39  1  0
 41 40  1  0
 42 41  1  0
 43 42  1  0
 44 43  1  0
 45 43  2  0
 46 37  1  0
 47 46  1  0
 48 47  1  0
 49 48  2  0
 47 50  1  1
 51 50  1  0
 52 51  2  0
 53 51  1  0
 54 48  1  0
 55 54  1  0
 56 55  1  0
 57 56  2  0
 58 56  1  0
 59 58  1  0
 60 59  1  0
 61 60  2  0
 62 60  1  0
 63 62  1  0
 64 63  1  0
 65 64  2  0
 63 66  1  1
M  END
$$$$
