
     RDKit          3D

 99 97  0  0  0  0  0  0  0  0999 V2000
   61.9040   17.1720   25.5600 N   0  0  0  0  0  0  0  0  0  0  0  0
   60.5900   17.7820   25.3680 C   0  0  2  0  0  0  0  0  0  0  0  0
   60.5530   19.2800   25.1810 C   0  0  0  0  0  0  0  0  0  0  0  0
   59.4940   19.8670   24.9700 O   0  0  0  0  0  0  0  0  0  0  0  0
   59.7240   17.4280   26.5510 C   0  0  0  0  0  0  0  0  0  0  0  0
   59.1090   16.0990   26.4040 C   0  0  0  0  0  0  0  0  0  0  0  0
   59.4200   15.3540   25.4600 O   0  0  0  0  0  0  0  0  0  0  0  0
   58.2370   15.8240   27.2290 O   0  0  0  0  0  0  0  0  0  0  0  0
   61.7050   19.9020   25.2450 N   0  0  0  0  0  0  0  0  0  0  0  0
   61.7320   21.3200   25.1770 C   0  0  0  0  0  0  0  0  0  0  0  0
   63.0780   21.7800   24.7650 C   0  0  0  0  0  0  0  0  0  0  0  0
   63.9990   20.9960   24.6490 O   0  0  0  0  0  0  0  0  0  0  0  0
   63.1610   23.0750   24.5430 N   0  0  0  0  0  0  0  0  0  0  0  0
   64.4000   23.7220   24.1860 C   0  0  2  0  0  0  0  0  0  0  0  0
   65.1090   24.1430   25.4570 C   0  0  0  0  0  0  0  0  0  0  0  0
   66.2910   23.8910   25.6380 O   0  0  0  0  0  0  0  0  0  0  0  0
   64.1230   24.8990   23.2670 C   0  0  0  0  0  0  0  0  0  0  0  0
   64.2090   24.6050   21.7820 C   0  0  0  0  0  0  0  0  0  0  0  0
   63.9790   23.4250   21.1380 C   0  0  0  0  0  0  0  0  0  0  0  0
   64.5000   25.5510   20.7790 C   0  0  0  0  0  0  0  0  0  0  0  0
   64.1350   23.5770   19.7940 N   0  0  0  0  0  0  0  0  0  0  0  0
   64.4470   24.8810   19.5430 C   0  0  0  0  0  0  0  0  0  0  0  0
   64.8210   26.9100   20.8060 C   0  0  0  0  0  0  0  0  0  0  0  0
   64.6930   25.5190   18.3450 C   0  0  0  0  0  0  0  0  0  0  0  0
   65.0440   27.5550   19.6110 C   0  0  0  0  0  0  0  0  0  0  0  0
   64.9930   26.8560   18.3960 C   0  0  0  0  0  0  0  0  0  0  0  0
   60.8260   20.7910   31.0720 N   0  0  0  0  0  0  0  0  0  0  0  0
   61.0020   21.7640   29.9880 C   0  0  2  0  0  0  0  0  0  0  0  0
   60.0820   22.9570   30.1840 C   0  0  0  0  0  0  0  0  0  0  0  0
   59.0100   22.8310   30.7800 O   0  0  0  0  0  0  0  0  0  0  0  0
   60.7350   21.1160   28.6360 C   0  0  0  0  0  0  0  0  0  0  0  0
   60.4980   24.1120   29.6730 N   0  0  0  0  0  0  0  0  0  0  0  0
   59.6820   25.3090   29.7300 C   0  0  2  0  0  0  0  0  0  0  0  0
   59.1900   25.5790   28.3320 C   0  0  0  0  0  0  0  0  0  0  0  0
   59.9760   25.8860   27.4530 O   0  0  0  0  0  0  0  0  0  0  0  0
   60.4770   26.4960   30.2550 C   0  0  0  0  0  0  0  0  0  0  0  0
   59.5980   27.7410   30.4860 C   0  0  0  0  0  0  0  0  0  0  0  0
   58.6130   27.6660   31.2610 O   0  0  0  0  0  0  0  0  0  0  0  0
   59.8940   28.7970   29.8850 O   0  0  0  0  0  0  0  0  0  0  0  0
   57.8810   25.4610   28.1500 N   0  0  0  0  0  0  0  0  0  0  0  0
   57.2570   25.6020   26.8330 C   0  0  2  0  0  0  0  0  0  0  0  0
   57.0970   27.0440   26.3270 C   0  0  0  0  0  0  0  0  0  0  0  0
   57.1830   27.2930   25.1210 O   0  0  0  0  0  0  0  0  0  0  0  0
   55.9140   24.8790   26.8340 C   0  0  0  0  0  0  0  0  0  0  0  0
   55.9850   23.4430   27.3330 C   0  0  0  0  0  0  0  0  0  0  0  0
   54.8430   22.7700   27.7750 C   0  0  0  0  0  0  0  0  0  0  0  0
   57.1910   22.7580   27.3800 C   0  0  0  0  0  0  0  0  0  0  0  0
   54.9060   21.4560   28.2230 C   0  0  0  0  0  0  0  0  0  0  0  0
   57.2490   21.4580   27.8290 C   0  0  0  0  0  0  0  0  0  0  0  0
   56.1140   20.8090   28.2430 C   0  0  0  0  0  0  0  0  0  0  0  0
   56.2080   19.5170   28.6850 O   0  0  0  0  0  0  0  0  0  0  0  0
   56.8750   27.9910   27.2340 N   0  0  0  0  0  0  0  0  0  0  0  0
   56.7250   29.3870   26.8490 C   0  0  2  0  0  0  0  0  0  0  0  0
   57.9830   29.9060   26.1670 C   0  0  0  0  0  0  0  0  0  0  0  0
   57.8970   30.5940   25.1510 O   0  0  0  0  0  0  0  0  0  0  0  0
   56.4170   30.2670   28.0630 C   0  0  0  0  0  0  0  0  0  0  0  0
   55.0160   30.1150   28.6120 C   0  0  0  0  0  0  0  0  0  0  0  0
   54.6800   31.2380   29.5970 C   0  0  0  0  0  0  0  0  0  0  0  0
   53.2220   31.1920   30.0560 C   0  0  0  0  0  0  0  0  0  0  0  0
   52.7670   32.4200   30.7750 N   0  0  0  0  0  0  0  0  0  0  0  0
   60.4290   27.8370   25.0000 N   0  0  0  0  0  0  0  0  0  0  0  0
   60.5440   26.9130   23.8680 C   0  0  2  0  0  0  0  0  0  0  0  0
   59.6580   27.3360   22.6890 C   0  0  0  0  0  0  0  0  0  0  0  0
   60.1210   27.3610   21.5610 O   0  0  0  0  0  0  0  0  0  0  0  0
   60.1940   25.4710   24.2820 C   0  0  2  0  0  0  0  0  0  0  0  0
   61.1530   25.0110   25.2480 O   0  0  0  0  0  0  0  0  0  0  0  0
   60.2030   24.5440   23.0710 C   0  0  0  0  0  0  0  0  0  0  0  0
   58.4030   27.6690   22.9520 N   0  0  0  0  0  0  0  0  0  0  0  0
   57.5040   28.1120   21.8920 C   0  0  2  0  0  0  0  0  0  0  0  0
   57.9430   29.4290   21.2630 C   0  0  0  0  0  0  0  0  0  0  0  0
   57.8570   29.5840   20.0590 O   0  0  0  0  0  0  0  0  0  0  0  0
   56.0760   28.2580   22.4050 C   0  0  0  0  0  0  0  0  0  0  0  0
   55.0290   28.3770   21.3110 C   0  0  0  0  0  0  0  0  0  0  0  0
   54.9190   27.1320   20.4530 C   0  0  0  0  0  0  0  0  0  0  0  0
   54.4680   27.1960   19.3320 O   0  0  0  0  0  0  0  0  0  0  0  0
   55.3550   26.0060   20.9690 N   0  0  0  0  0  0  0  0  0  0  0  0
   60.6920   28.5500   18.8820 N   0  0  0  0  0  0  0  0  0  0  0  0
   60.1070   27.8050   17.7710 C   0  0  2  0  0  0  0  0  0  0  0  0
   59.3290   28.7120   16.8160 C   0  0  0  0  0  0  0  0  0  0  0  0
   59.5210   28.6260   15.6010 O   0  0  0  0  0  0  0  0  0  0  0  0
   59.2480   26.6220   18.2820 C   0  0  2  0  0  0  0  0  0  0  0  0
   60.1920   25.5370   18.8120 C   0  0  0  0  0  0  0  0  0  0  0  0
   58.3400   26.0620   17.1910 C   0  0  0  0  0  0  0  0  0  0  0  0
   59.5150   24.4310   19.5750 C   0  0  0  0  0  0  0  0  0  0  0  0
   58.4790   29.5760   17.3640 N   0  0  0  0  0  0  0  0  0  0  0  0
   57.6890   30.5080   16.5490 C   0  0  2  0  0  0  0  0  0  0  0  0
   58.5640   31.4370   15.7000 C   0  0  0  0  0  0  0  0  0  0  0  0
   58.2130   31.7720   14.5670 O   0  0  0  0  0  0  0  0  0  0  0  0
   56.7380   31.3480   17.4280 C   0  0  0  0  0  0  0  0  0  0  0  0
   55.5240   30.5620   17.9260 C   0  0  0  0  0  0  0  0  0  0  0  0
   55.5930   29.3200   17.9680 O   0  0  0  0  0  0  0  0  0  0  0  0
   54.5000   31.1950   18.2730 O   0  0  0  0  0  0  0  0  0  0  0  0
   60.2900   29.3240   12.9560 N   0  0  0  0  0  0  0  0  0  0  0  0
   59.2330   29.0450   11.9980 C   0  0  2  0  0  0  0  0  0  0  0  0
   58.9580   30.2450   11.1040 C   0  0  0  0  0  0  0  0  0  0  0  0
   58.7170   30.0760    9.9100 O   0  0  0  0  0  0  0  0  0  0  0  0
   57.9330   28.6150   12.6880 C   0  0  2  0  0  0  0  0  0  0  0  0
   58.1880   27.4670   13.5090 O   0  0  0  0  0  0  0  0  0  0  0  0
   56.8580   28.2530   11.6470 C   0  0  0  0  0  0  0  0  0  0  0  0
  2  1  1  1
  3  2  1  0
  4  3  2  0
  5  2  1  0
  6  5  1  0
  7  6  2  0
  8  6  1  0
  9  3  1  0
 10  9  1  0
 11 10  1  0
 12 11  2  0
 13 11  1  0
 14 13  1  0
 15 14  1  0
 16 15  2  0
 14 17  1  6
 18 17  1  0
 19 18  2  0
 20 18  1  0
 21 19  1  0
 22 21  1  0
 22 20  2  0
 23 20  1  0
 24 22  1  0
 25 23  2  0
 26 24  2  0
 26 25  1  0
 28 27  1  0
 29 28  1  0
 30 29  2  0
 28 31  1  6
 32 29  1  0
 33 32  1  0
 34 33  1  0
 35 34  2  0
 33 36  1  6
 37 36  1  0
 38 37  2  0
 39 37  1  0
 40 34  1  0
 41 40  1  0
 42 41  1  0
 43 42  2  0
 41 44  1  1
 45 44  1  0
 46 45  2  0
 47 45  1  0
 48 46  1  0
 49 47  2  0
 50 49  1  0
 50 48  2  0
 51 50  1  0
 52 42  1  0
 53 52  1  0
 54 53  1  0
 55 54  2  0
 53 56  1  1
 57 56  1  0
 58 57  1  0
 59 58  1  0
 60 59  1  0
 62 61  1  1
 63 62  1  0
 64 63  2  0
 65 62  1  0
 66 65  1  0
 65 67  1  6
 68 63  1  0
 69 68  1  0
 70 69  1  0
 71 70  2  0
 69 72  1  1
 73 72  1  0
 74 73  1  0
 75 74  2  0
 76 74  1  0
 78 77  1  1
 79 78  1  0
 80 79  2  0
 81 78  1  0
 82 81  1  0
 81 83  1  6
 84 82  1  0
 85 79  1  0
 86 85  1  0
 87 86  1  0
 88 87  2  0
 86 89  1  1
 90 89  1  0
 91 90  2  0
 92 90  1  0
 94 93  1  1
 95 94  1  0
 96 95  2  0
 97 94  1  0
 98 97  1  0
 97 99  1  6
M  END
$$$$
