
     RDKit          3D

 72 69  0  0  0  0  0  0  0  0999 V2000
   96.7710   58.1910   37.8980 N   0  0  0  0  0  0  0  0  0  0  0  0
   96.2640   57.3480   38.9730 C   0  0  2  0  0  0  0  0  0  0  0  0
   96.5500   57.9390   40.3490 C   0  0  0  0  0  0  0  0  0  0  0  0
   97.6020   58.5350   40.5690 O   0  0  0  0  0  0  0  0  0  0  0  0
   96.8640   55.9470   38.8760 C   0  0  0  0  0  0  0  0  0  0  0  0
   96.3520   54.9920   39.9370 C   0  0  0  0  0  0  0  0  0  0  0  0
   96.9050   53.6010   39.7420 C   0  0  0  0  0  0  0  0  0  0  0  0
   98.3630   53.5640   39.7880 N   0  0  0  0  0  0  0  0  0  0  0  0
   99.0690   53.2760   40.8770 C   0  0  0  0  0  0  0  0  0  0  0  0
   98.4490   52.9970   42.0160 N   0  0  0  0  0  0  0  0  0  0  0  0
  100.3950   53.2650   40.8280 N   0  0  0  0  0  0  0  0  0  0  0  0
   95.6070   57.7630   41.2710 N   0  0  0  0  0  0  0  0  0  0  0  0
   95.7500   58.2560   42.6360 C   0  0  2  0  0  0  0  0  0  0  0  0
   96.7540   57.4430   43.4560 C   0  0  0  0  0  0  0  0  0  0  0  0
   96.5530   56.2530   43.6970 O   0  0  0  0  0  0  0  0  0  0  0  0
   94.3910   58.2550   43.3390 C   0  0  0  0  0  0  0  0  0  0  0  0
   93.8620   59.6530   43.5810 C   0  0  0  0  0  0  0  0  0  0  0  0
   94.2900   60.2870   44.5700 O   0  0  0  0  0  0  0  0  0  0  0  0
   93.0180   60.1180   42.7850 O   0  0  0  0  0  0  0  0  0  0  0  0
   97.8260   58.0990   43.8900 N   0  0  0  0  0  0  0  0  0  0  0  0
   98.8600   57.4530   44.6790 C   0  0  0  0  0  0  0  0  0  0  0  0
   98.4780   57.3000   46.1380 C   0  0  0  0  0  0  0  0  0  0  0  0
   97.5360   57.9320   46.6120 O   0  0  0  0  0  0  0  0  0  0  0  0
   99.2120   56.4560   46.8560 N   0  0  0  0  0  0  0  0  0  0  0  0
   98.8990   56.1760   48.2440 C   0  0  0  0  0  0  0  0  0  0  0  0
   97.7190   55.2320   48.4030 C   0  0  0  0  0  0  0  0  0  0  0  0
   96.6590   55.4260   47.7770 O   0  0  0  0  0  0  0  0  0  0  0  0
   97.9230   54.2050   49.2330 N   0  0  0  0  0  0  0  0  0  0  0  0
   96.8800   53.2470   49.6160 C   0  0  2  0  0  0  0  0  0  0  0  0
   97.4230   52.1740   50.5600 C   0  0  0  0  0  0  0  0  0  0  0  0
   97.7440   52.4610   51.7190 O   0  0  0  0  0  0  0  0  0  0  0  0
   96.2590   52.5750   48.3820 C   0  0  0  0  0  0  0  0  0  0  0  0
   97.2990   52.1750   47.3420 C   0  0  0  0  0  0  0  0  0  0  0  0
   98.0450   51.2120   47.5300 O   0  0  0  0  0  0  0  0  0  0  0  0
   97.3460   52.9120   46.2370 N   0  0  0  0  0  0  0  0  0  0  0  0
   97.4720   50.9460   50.0320 N   0  0  0  0  0  0  0  0  0  0  0  0
   98.1350   49.7560   50.5920 C   0  0  2  0  0  0  0  0  0  0  0  0
   97.1910   48.8590   51.3920 C   0  0  0  0  0  0  0  0  0  0  0  0
   97.4510   47.6650   51.5460 O   0  0  0  0  0  0  0  0  0  0  0  0
   99.3470   50.1330   51.4490 C   0  0  0  0  0  0  0  0  0  0  0  0
  100.3740   50.6790   50.6390 O   0  0  0  0  0  0  0  0  0  0  0  0
  105.3950   53.0620   32.9340 N   0  0  0  0  0  0  0  0  0  0  0  0
  105.4320   52.1430   34.0620 C   0  0  2  0  0  0  0  0  0  0  0  0
  104.1300   52.2660   34.8440 C   0  0  0  0  0  0  0  0  0  0  0  0
  103.8540   53.3070   35.4390 O   0  0  0  0  0  0  0  0  0  0  0  0
  106.6350   52.4370   34.9610 C   0  0  0  0  0  0  0  0  0  0  0  0
  106.9650   51.2900   35.8960 C   0  0  0  0  0  0  0  0  0  0  0  0
  106.2290   51.0130   36.8410 O   0  0  0  0  0  0  0  0  0  0  0  0
  108.0830   50.6230   35.6390 N   0  0  0  0  0  0  0  0  0  0  0  0
  102.9430   50.8120   37.6340 N   0  0  0  0  0  0  0  0  0  0  0  0
  103.0380   50.9300   39.0870 C   0  0  2  0  0  0  0  0  0  0  0  0
  103.5380   52.3150   39.4940 C   0  0  0  0  0  0  0  0  0  0  0  0
  103.3480   52.7460   40.6310 O   0  0  0  0  0  0  0  0  0  0  0  0
  103.9600   49.8470   39.6820 C   0  0  2  0  0  0  0  0  0  0  0  0
  105.2250   49.8670   39.0090 O   0  0  0  0  0  0  0  0  0  0  0  0
  103.3310   48.4690   39.5210 C   0  0  0  0  0  0  0  0  0  0  0  0
  104.1730   53.0060   38.5530 N   0  0  0  0  0  0  0  0  0  0  0  0
  104.6170   54.3770   38.7710 C   0  0  2  0  0  0  0  0  0  0  0  0
  103.4540   55.3240   38.5270 C   0  0  0  0  0  0  0  0  0  0  0  0
  102.9960   55.4690   37.3940 O   0  0  0  0  0  0  0  0  0  0  0  0
  105.7880   54.7200   37.8480 C   0  0  0  0  0  0  0  0  0  0  0  0
  106.4580   56.0350   38.2080 C   0  0  0  0  0  0  0  0  0  0  0  0
  105.8930   56.7940   39.0240 O   0  0  0  0  0  0  0  0  0  0  0  0
  107.5510   56.3120   37.6680 O   0  0  0  0  0  0  0  0  0  0  0  0
  102.9760   55.9700   39.5840 N   0  0  0  0  0  0  0  0  0  0  0  0
  101.8370   56.8720   39.4510 C   0  0  2  0  0  0  0  0  0  0  0  0
  102.2620   58.2370   38.9250 C   0  0  0  0  0  0  0  0  0  0  0  0
  101.4290   59.0220   38.4790 O   0  0  0  0  0  0  0  0  0  0  0  0
  101.1070   57.0250   40.7870 C   0  0  0  0  0  0  0  0  0  0  0  0
  101.9370   57.7500   41.8210 C   0  0  0  0  0  0  0  0  0  0  0  0
  102.9040   57.2050   42.3440 O   0  0  0  0  0  0  0  0  0  0  0  0
  101.5590   58.9840   42.1260 N   0  0  0  0  0  0  0  0  0  0  0  0
  2  1  1  6
  3  2  1  0
  4  3  2  0
  5  2  1  0
  6  5  1  0
  7  6  1  0
  8  7  1  0
  9  8  1  0
 10  9  1  0
 11  9  2  0
 12  3  1  0
 13 12  1  0
 14 13  1  0
 15 14  2  0
 13 16  1  1
 17 16  1  0
 18 17  2  0
 19 17  1  0
 20 14  1  0
 21 20  1  0
 22 21  1  0
 23 22  2  0
 24 22  1  0
 25 24  1  0
 26 25  1  0
 27 26  2  0
 28 26  1  0
 29 28  1  0
 30 29  1  0
 31 30  2  0
 29 32  1  6
 33 32  1  0
 34 33  2  0
 35 33  1  0
 36 30  1  0
 37 36  1  0
 38 37  1  0
 39 38  2  0
 37 40  1  1
 41 40  1  0
 43 42  1  6
 44 43  1  0
 45 44  2  0
 46 43  1  0
 47 46  1  0
 48 47  2  0
 49 47  1  0
 51 50  1  6
 52 51  1  0
 53 52  2  0
 54 51  1  0
 55 54  1  0
 54 56  1  6
 57 52  1  0
 58 57  1  0
 59 58  1  0
 60 59  2  0
 58 61  1  6
 62 61  1  0
 63 62  2  0
 64 62  1  0
 65 59  1  0
 66 65  1  0
 67 66  1  0
 68 67  2  0
 66 69  1  1
 70 69  1  0
 71 70  2  0
 72 70  1  0
M  END
$$$$
