
     RDKit          3D

124118  0  0  0  0  0  0  0  0999 V2000
  122.0740   24.2520   54.2510 N   0  0  0  0  0  0  0  0  0  0  0  0
  120.7990   24.1130   54.9590 C   0  0  2  0  0  0  0  0  0  0  0  0
  119.7010   23.5330   54.0720 C   0  0  0  0  0  0  0  0  0  0  0  0
  118.8890   22.7420   54.5470 O   0  0  0  0  0  0  0  0  0  0  0  0
  120.3410   25.4590   55.5320 C   0  0  0  0  0  0  0  0  0  0  0  0
  119.2150   25.4090   56.5720 C   0  0  0  0  0  0  0  0  0  0  0  0
  119.6640   24.6880   57.8380 C   0  0  0  0  0  0  0  0  0  0  0  0
  118.7300   26.8150   56.8940 C   0  0  0  0  0  0  0  0  0  0  0  0
  120.2910   19.8420   53.9060 N   0  0  0  0  0  0  0  0  0  0  0  0
  119.8620   19.2750   55.1860 C   0  0  2  0  0  0  0  0  0  0  0  0
  118.3360   19.2350   55.2780 C   0  0  0  0  0  0  0  0  0  0  0  0
  117.7760   18.2200   55.6860 O   0  0  0  0  0  0  0  0  0  0  0  0
  120.4450   20.0870   56.3510 C   0  0  0  0  0  0  0  0  0  0  0  0
  120.2680   19.4740   57.7360 C   0  0  0  0  0  0  0  0  0  0  0  0
  120.9020   20.3130   58.8440 C   0  0  0  0  0  0  0  0  0  0  0  0
  121.3010   21.4640   58.6320 O   0  0  0  0  0  0  0  0  0  0  0  0
  120.9890   19.7380   60.0400 N   0  0  0  0  0  0  0  0  0  0  0  0
  121.7700   15.0880   56.0810 N   0  0  0  0  0  0  0  0  0  0  0  0
  121.4780   15.5800   57.4350 C   0  0  2  0  0  0  0  0  0  0  0  0
  122.1750   14.7830   58.5470 C   0  0  0  0  0  0  0  0  0  0  0  0
  122.2820   15.2760   59.6700 O   0  0  0  0  0  0  0  0  0  0  0  0
  119.9750   15.6180   57.6770 C   0  0  0  0  0  0  0  0  0  0  0  0
  123.2250   12.6720   61.5520 N   0  0  0  0  0  0  0  0  0  0  0  0
  122.5490   12.3950   62.8240 C   0  0  2  0  0  0  0  0  0  0  0  0
  121.4470   13.4290   63.1200 C   0  0  0  0  0  0  0  0  0  0  0  0
  120.4080   13.0830   63.6940 O   0  0  0  0  0  0  0  0  0  0  0  0
  123.5630   12.3450   63.9590 C   0  0  0  0  0  0  0  0  0  0  0  0
  121.6770   14.6840   62.7170 N   0  0  0  0  0  0  0  0  0  0  0  0
  120.7260   15.7970   62.9360 C   0  0  2  0  0  0  0  0  0  0  0  0
  119.3650   15.6100   62.2520 C   0  0  0  0  0  0  0  0  0  0  0  0
  118.3840   16.2200   62.6700 O   0  0  0  0  0  0  0  0  0  0  0  0
  121.3410   17.1210   62.4910 C   0  0  0  0  0  0  0  0  0  0  0  0
  117.0440   12.4790   64.4620 N   0  0  0  0  0  0  0  0  0  0  0  0
  116.2720   13.0310   65.5810 C   0  0  2  0  0  0  0  0  0  0  0  0
  115.2200   14.0700   65.1270 C   0  0  0  0  0  0  0  0  0  0  0  0
  114.2370   14.2990   65.8300 O   0  0  0  0  0  0  0  0  0  0  0  0
  117.2090   13.6270   66.6440 C   0  0  0  0  0  0  0  0  0  0  0  0
  118.1070   12.6060   67.3300 C   0  0  0  0  0  0  0  0  0  0  0  0
  119.1910   13.2620   68.1790 C   0  0  0  0  0  0  0  0  0  0  0  0
  120.4390   13.5290   67.4360 N   0  0  0  0  0  0  0  0  0  0  0  0
  121.6170   12.9000   67.5910 C   0  0  0  0  0  0  0  0  0  0  0  0
  121.7960   11.9130   68.4780 N   0  0  0  0  0  0  0  0  0  0  0  0
  122.6560   13.2680   66.8390 N   0  0  0  0  0  0  0  0  0  0  0  0
  116.2640   30.6350   60.6600 N   0  0  0  0  0  0  0  0  0  0  0  0
  116.6890   29.2370   60.8280 C   0  0  2  0  0  0  0  0  0  0  0  0
  118.1170   29.0980   61.3930 C   0  0  0  0  0  0  0  0  0  0  0  0
  118.3160   28.4040   62.3830 O   0  0  0  0  0  0  0  0  0  0  0  0
  116.5410   28.4570   59.5070 C   0  0  0  0  0  0  0  0  0  0  0  0
  115.1140   27.9990   59.1510 C   0  0  0  0  0  0  0  0  0  0  0  0
  114.9200   27.7480   57.6540 C   0  0  0  0  0  0  0  0  0  0  0  0
  114.7270   26.7550   59.9440 C   0  0  0  0  0  0  0  0  0  0  0  0
  119.0890   29.7790   60.7890 N   0  0  0  0  0  0  0  0  0  0  0  0
  120.4910   29.7280   61.2480 C   0  0  2  0  0  0  0  0  0  0  0  0
  120.6440   30.3060   62.6640 C   0  0  0  0  0  0  0  0  0  0  0  0
  121.3730   29.7320   63.4890 O   0  0  0  0  0  0  0  0  0  0  0  0
  121.4430   30.4550   60.2600 C   0  0  0  0  0  0  0  0  0  0  0  0
  122.8560   30.6050   60.8300 C   0  0  0  0  0  0  0  0  0  0  0  0
  121.4800   29.7160   58.9220 C   0  0  0  0  0  0  0  0  0  0  0  0
  119.9660   31.4340   62.9240 N   0  0  0  0  0  0  0  0  0  0  0  0
  119.8970   32.0380   64.2670 C   0  0  2  0  0  0  0  0  0  0  0  0
  119.3630   31.0400   65.2840 C   0  0  0  0  0  0  0  0  0  0  0  0
  119.9330   30.8980   66.3670 O   0  0  0  0  0  0  0  0  0  0  0  0
  119.0130   33.2930   64.2700 C   0  0  0  0  0  0  0  0  0  0  0  0
  118.7370   33.9210   65.6430 C   0  0  0  0  0  0  0  0  0  0  0  0
  117.3600   34.5700   65.6870 C   0  0  0  0  0  0  0  0  0  0  0  0
  117.1080   35.2570   67.0190 C   0  0  0  0  0  0  0  0  0  0  0  0
  115.8640   36.0720   66.9820 N   0  0  0  0  0  0  0  0  0  0  0  0
  119.5290   27.8790   65.4890 N   0  0  0  0  0  0  0  0  0  0  0  0
  120.2880   26.6170   65.3970 C   0  0  2  0  0  0  0  0  0  0  0  0
  119.7960   25.5780   64.3830 C   0  0  0  0  0  0  0  0  0  0  0  0
  120.0670   24.3940   64.5440 O   0  0  0  0  0  0  0  0  0  0  0  0
  120.4390   25.9610   66.7880 C   0  0  0  0  0  0  0  0  0  0  0  0
  121.4690   26.6020   67.7120 C   0  0  0  0  0  0  0  0  0  0  0  0
  120.8120   27.1610   68.9660 C   0  0  0  0  0  0  0  0  0  0  0  0
  121.7780   27.7080   69.9220 N   0  0  0  0  0  0  0  0  0  0  0  0
  122.3640   28.9070   69.8400 C   0  0  0  0  0  0  0  0  0  0  0  0
  122.1310   29.7480   68.8260 N   0  0  0  0  0  0  0  0  0  0  0  0
  123.2100   29.2670   70.7960 N   0  0  0  0  0  0  0  0  0  0  0  0
  119.1000   26.0040   63.3330 N   0  0  0  0  0  0  0  0  0  0  0  0
  118.6230   25.0920   62.2870 C   0  0  0  0  0  0  0  0  0  0  0  0
  117.8280   23.9170   62.8300 C   0  0  0  0  0  0  0  0  0  0  0  0
  117.0840   24.0750   63.8040 O   0  0  0  0  0  0  0  0  0  0  0  0
  118.0050   22.7390   62.2190 N   0  0  0  0  0  0  0  0  0  0  0  0
  117.3010   21.5180   62.6420 C   0  0  2  0  0  0  0  0  0  0  0  0
  117.7470   20.9990   64.0180 C   0  0  0  0  0  0  0  0  0  0  0  0
  117.0030   20.2650   64.6740 O   0  0  0  0  0  0  0  0  0  0  0  0
  117.4250   20.4060   61.5880 C   0  0  0  0  0  0  0  0  0  0  0  0
  116.7420   20.7460   60.3220 C   0  0  0  0  0  0  0  0  0  0  0  0
  117.3220   21.2010   59.1930 C   0  0  0  0  0  0  0  0  0  0  0  0
  115.3340   20.6940   60.0620 C   0  0  0  0  0  0  0  0  0  0  0  0
  116.3770   21.4340   58.2320 N   0  0  0  0  0  0  0  0  0  0  0  0
  115.1420   21.1340   58.7380 C   0  0  0  0  0  0  0  0  0  0  0  0
  114.2130   20.3220   60.8200 C   0  0  0  0  0  0  0  0  0  0  0  0
  113.8760   21.2120   58.1480 C   0  0  0  0  0  0  0  0  0  0  0  0
  112.9540   20.3960   60.2320 C   0  0  0  0  0  0  0  0  0  0  0  0
  112.7990   20.8330   58.9060 C   0  0  0  0  0  0  0  0  0  0  0  0
  118.9510   21.3780   64.4430 N   0  0  0  0  0  0  0  0  0  0  0  0
  119.3990   21.1250   65.8070 C   0  0  2  0  0  0  0  0  0  0  0  0
  118.4820   21.8280   66.8120 C   0  0  0  0  0  0  0  0  0  0  0  0
  118.1380   21.2700   67.8560 O   0  0  0  0  0  0  0  0  0  0  0  0
  120.8380   21.6010   66.0210 C   0  0  0  0  0  0  0  0  0  0  0  0
  121.8550   20.8040   65.2250 C   0  0  0  0  0  0  0  0  0  0  0  0
  121.6320   20.5860   64.0170 O   0  0  0  0  0  0  0  0  0  0  0  0
  122.8900   20.4100   65.8100 O   0  0  0  0  0  0  0  0  0  0  0  0
  118.1030   23.0560   66.4710 N   0  0  0  0  0  0  0  0  0  0  0  0
  117.1150   23.8200   67.2100 C   0  0  0  0  0  0  0  0  0  0  0  0
  115.7210   23.2500   67.0580 C   0  0  0  0  0  0  0  0  0  0  0  0
  114.9990   23.1760   68.0480 O   0  0  0  0  0  0  0  0  0  0  0  0
  114.7980   20.1820   66.6590 N   0  0  0  0  0  0  0  0  0  0  0  0
  114.7510   19.0380   67.5680 C   0  0  2  0  0  0  0  0  0  0  0  0
  114.6590   19.5130   69.0220 C   0  0  0  0  0  0  0  0  0  0  0  0
  113.8050   19.0250   69.7750 O   0  0  0  0  0  0  0  0  0  0  0  0
  115.9860   18.1190   67.3920 C   0  0  0  0  0  0  0  0  0  0  0  0
  116.0150   17.0110   68.4480 C   0  0  0  0  0  0  0  0  0  0  0  0
  116.0060   17.4930   66.0030 C   0  0  0  0  0  0  0  0  0  0  0  0
  115.5400   20.4500   69.3920 N   0  0  0  0  0  0  0  0  0  0  0  0
  115.6240   20.9980   70.7530 C   0  0  2  0  0  0  0  0  0  0  0  0
  114.3550   21.7170   71.2100 C   0  0  0  0  0  0  0  0  0  0  0  0
  113.9410   21.5620   72.3620 O   0  0  0  0  0  0  0  0  0  0  0  0
  116.8160   21.9640   70.8730 C   0  0  0  0  0  0  0  0  0  0  0  0
  118.1620   21.2740   71.0660 C   0  0  0  0  0  0  0  0  0  0  0  0
  119.3550   22.1090   70.6220 C   0  0  0  0  0  0  0  0  0  0  0  0
  119.2420   23.3410   70.4510 O   0  0  0  0  0  0  0  0  0  0  0  0
  120.4390   21.5280   70.4540 O   0  0  0  0  0  0  0  0  0  0  0  0
  2  1  1  6
  3  2  1  0
  4  3  2  0
  5  2  1  0
  6  5  1  0
  7  6  1  0
  8  6  1  0
 10  9  1  6
 11 10  1  0
 12 11  2  0
 13 10  1  0
 14 13  1  0
 15 14  1  0
 16 15  2  0
 17 15  1  0
 19 18  1  0
 20 19  1  0
 21 20  2  0
 19 22  1  1
 24 23  1  0
 25 24  1  0
 26 25  2  0
 24 27  1  1
 28 25  1  0
 29 28  1  0
 30 29  1  0
 31 30  2  0
 29 32  1  6
 34 33  1  6
 35 34  1  0
 36 35  2  0
 37 34  1  0
 38 37  1  0
 39 38  1  0
 40 39  1  0
 41 40  1  0
 42 41  1  0
 43 41  2  0
 45 44  1  6
 46 45  1  0
 47 46  2  0
 48 45  1  0
 49 48  1  0
 50 49  1  0
 51 49  1  0
 52 46  1  0
 53 52  1  6
 54 53  1  0
 55 54  2  0
 56 53  1  0
 57 56  1  0
 58 56  1  0
 59 54  1  0
 60 59  1  0
 61 60  1  0
 62 61  2  0
 60 63  1  6
 64 63  1  0
 65 64  1  0
 66 65  1  0
 67 66  1  0
 69 68  1  1
 70 69  1  0
 71 70  2  0
 72 69  1  0
 73 72  1  0
 74 73  1  0
 75 74  1  0
 76 75  1  0
 77 76  1  0
 78 76  2  0
 79 70  1  0
 80 79  1  0
 81 80  1  0
 82 81  2  0
 83 81  1  0
 84 83  1  0
 85 84  1  0
 86 85  2  0
 84 87  1  6
 88 87  1  0
 89 88  2  0
 90 88  1  0
 91 89  1  0
 92 91  1  0
 92 90  2  0
 93 90  1  0
 94 92  1  0
 95 93  2  0
 96 94  2  0
 96 95  1  0
 97 85  1  0
 98 97  1  0
 99 98  1  0
100 99  2  0
 98101  1  6
102101  1  0
103102  2  0
104102  1  0
105 99  1  0
106105  1  0
107106  1  0
108107  2  0
110109  1  6
111110  1  0
112111  2  0
113110  1  0
114113  1  0
115113  1  0
116111  1  0
117116  1  0
118117  1  0
119118  2  0
117120  1  6
121120  1  0
122121  1  0
123122  2  0
124122  1  0
M  END
$$$$
