
     RDKit          3D

121114  0  0  0  0  0  0  0  0999 V2000
  -54.6620   66.5660   62.2930 N   0  0  0  0  0  0  0  0  0  0  0  0
  -54.7960   65.7800   63.5130 C   0  0  2  0  0  0  0  0  0  0  0  0
  -54.8310   64.3120   63.1260 C   0  0  0  0  0  0  0  0  0  0  0  0
  -55.7330   63.8750   62.4050 O   0  0  0  0  0  0  0  0  0  0  0  0
  -56.0510   66.1670   64.3040 C   0  0  0  0  0  0  0  0  0  0  0  0
  -56.1760   65.3900   65.4840 O   0  0  0  0  0  0  0  0  0  0  0  0
  -53.8370   63.5630   63.5850 N   0  0  0  0  0  0  0  0  0  0  0  0
  -53.7940   62.1370   63.3600 C   0  0  0  0  0  0  0  0  0  0  0  0
  -53.8040   61.3960   64.6760 C   0  0  0  0  0  0  0  0  0  0  0  0
  -54.2120   61.9460   65.7020 O   0  0  0  0  0  0  0  0  0  0  0  0
  -53.3470   60.1510   64.6630 N   0  0  0  0  0  0  0  0  0  0  0  0
  -53.2830   59.3470   65.8780 C   0  0  2  0  0  0  0  0  0  0  0  0
  -52.0670   59.7980   66.6800 C   0  0  0  0  0  0  0  0  0  0  0  0
  -50.9580   59.2880   66.5180 O   0  0  0  0  0  0  0  0  0  0  0  0
  -53.2180   57.8680   65.5270 C   0  0  0  0  0  0  0  0  0  0  0  0
  -54.2420   57.5330   64.6080 O   0  0  0  0  0  0  0  0  0  0  0  0
  -50.4940   60.2450   60.4100 N   0  0  0  0  0  0  0  0  0  0  0  0
  -50.9160   58.8910   60.7160 C   0  0  2  0  0  0  0  0  0  0  0  0
  -51.5600   58.2490   59.4900 C   0  0  0  0  0  0  0  0  0  0  0  0
  -51.8610   58.9080   58.4920 O   0  0  0  0  0  0  0  0  0  0  0  0
  -51.8900   58.8840   61.8940 C   0  0  0  0  0  0  0  0  0  0  0  0
  -54.5230   57.2020   59.5140 N   0  0  0  0  0  0  0  0  0  0  0  0
  -55.8110   57.8630   59.5100 C   0  0  0  0  0  0  0  0  0  0  0  0
  -55.7640   59.1690   60.2710 C   0  0  0  0  0  0  0  0  0  0  0  0
  -55.2840   59.2150   61.4090 O   0  0  0  0  0  0  0  0  0  0  0  0
  -56.2290   60.2440   59.6390 N   0  0  0  0  0  0  0  0  0  0  0  0
  -56.1970   61.5580   60.2500 C   0  0  0  0  0  0  0  0  0  0  0  0
  -57.1840   62.4700   59.5600 C   0  0  0  0  0  0  0  0  0  0  0  0
  -57.9300   62.0580   58.6700 O   0  0  0  0  0  0  0  0  0  0  0  0
  -57.2090   63.7210   60.0040 N   0  0  0  0  0  0  0  0  0  0  0  0
  -58.0900   64.7150   59.4130 C   0  0  2  0  0  0  0  0  0  0  0  0
  -57.3310   66.0100   59.1570 C   0  0  0  0  0  0  0  0  0  0  0  0
  -56.3220   66.3050   59.8020 O   0  0  0  0  0  0  0  0  0  0  0  0
  -59.3510   64.9730   60.2760 C   0  0  0  0  0  0  0  0  0  0  0  0
  -59.0300   65.3540   61.7030 C   0  0  0  0  0  0  0  0  0  0  0  0
  -58.1480   66.2090   61.9230 O   0  0  0  0  0  0  0  0  0  0  0  0
  -59.6800   64.8000   62.6120 O   0  0  0  0  0  0  0  0  0  0  0  0
  -72.5800   65.0310   58.9080 N   0  0  0  0  0  0  0  0  0  0  0  0
  -71.4240   64.1930   58.6180 C   0  0  2  0  0  0  0  0  0  0  0  0
  -71.6850   63.5000   57.2900 C   0  0  0  0  0  0  0  0  0  0  0  0
  -72.7030   62.8170   57.1250 O   0  0  0  0  0  0  0  0  0  0  0  0
  -71.1730   63.1780   59.7390 C   0  0  0  0  0  0  0  0  0  0  0  0
  -70.2090   62.0990   59.2720 C   0  0  0  0  0  0  0  0  0  0  0  0
  -70.6410   63.8900   60.9740 C   0  0  0  0  0  0  0  0  0  0  0  0
  -70.7730   63.6850   56.3370 N   0  0  0  0  0  0  0  0  0  0  0  0
  -70.9490   63.2110   54.9710 C   0  0  2  0  0  0  0  0  0  0  0  0
  -69.6390   62.6130   54.4770 C   0  0  0  0  0  0  0  0  0  0  0  0
  -68.6150   62.6530   55.1590 O   0  0  0  0  0  0  0  0  0  0  0  0
  -71.3990   64.3440   54.0300 C   0  0  0  0  0  0  0  0  0  0  0  0
  -72.7840   64.8510   54.4080 C   0  0  0  0  0  0  0  0  0  0  0  0
  -70.3930   65.4670   54.0830 C   0  0  0  0  0  0  0  0  0  0  0  0
  -69.6920   62.0210   53.2800 N   0  0  0  0  0  0  0  0  0  0  0  0
  -68.5010   61.5310   52.5900 C   0  0  2  0  0  0  0  0  0  0  0  0
  -68.5430   62.1060   51.1730 C   0  0  0  0  0  0  0  0  0  0  0  0
  -68.7160   61.3800   50.1910 O   0  0  0  0  0  0  0  0  0  0  0  0
  -68.4470   60.0060   52.5610 C   0  0  2  0  0  0  0  0  0  0  0  0
  -68.6020   59.4930   53.8850 O   0  0  0  0  0  0  0  0  0  0  0  0
  -67.0880   59.5640   52.0680 C   0  0  0  0  0  0  0  0  0  0  0  0
  -61.6740   63.2270   51.5910 N   0  0  0  0  0  0  0  0  0  0  0  0
  -63.0540   63.6380   51.3640 C   0  0  2  0  0  0  0  0  0  0  0  0
  -63.4550   64.7120   52.3670 C   0  0  0  0  0  0  0  0  0  0  0  0
  -62.8600   64.8490   53.4380 O   0  0  0  0  0  0  0  0  0  0  0  0
  -64.0190   62.4400   51.4220 C   0  0  0  0  0  0  0  0  0  0  0  0
  -64.1630   61.7620   52.7710 C   0  0  0  0  0  0  0  0  0  0  0  0
  -64.8150   62.2430   53.8710 C   0  0  0  0  0  0  0  0  0  0  0  0
  -63.6770   60.4600   53.1330 C   0  0  0  0  0  0  0  0  0  0  0  0
  -64.7450   61.3350   54.8970 N   0  0  0  0  0  0  0  0  0  0  0  0
  -64.0560   60.2300   54.4700 C   0  0  0  0  0  0  0  0  0  0  0  0
  -62.9520   59.4690   52.4570 C   0  0  0  0  0  0  0  0  0  0  0  0
  -63.7340   59.0520   55.1460 C   0  0  0  0  0  0  0  0  0  0  0  0
  -62.6340   58.3020   53.1280 C   0  0  0  0  0  0  0  0  0  0  0  0
  -63.0210   58.1060   54.4610 C   0  0  0  0  0  0  0  0  0  0  0  0
  -65.7790   65.8380   55.1510 N   0  0  0  0  0  0  0  0  0  0  0  0
  -66.5760   65.1020   56.1190 C   0  0  2  0  0  0  0  0  0  0  0  0
  -67.5440   65.9800   56.8920 C   0  0  0  0  0  0  0  0  0  0  0  0
  -68.7170   65.6210   57.0280 O   0  0  0  0  0  0  0  0  0  0  0  0
  -65.6810   64.3370   57.1030 C   0  0  0  0  0  0  0  0  0  0  0  0
  -66.4310   63.1980   57.7700 C   0  0  0  0  0  0  0  0  0  0  0  0
  -65.5370   62.2570   58.5360 C   0  0  0  0  0  0  0  0  0  0  0  0
  -64.9400   62.6880   59.5430 O   0  0  0  0  0  0  0  0  0  0  0  0
  -65.4460   61.0790   58.1340 O   0  0  0  0  0  0  0  0  0  0  0  0
  -67.0990   67.1310   57.3890 N   0  0  0  0  0  0  0  0  0  0  0  0
  -67.9780   67.9400   58.2170 C   0  0  2  0  0  0  0  0  0  0  0  0
  -67.4880   69.3750   58.2580 C   0  0  0  0  0  0  0  0  0  0  0  0
  -66.2840   69.6420   58.2710 O   0  0  0  0  0  0  0  0  0  0  0  0
  -68.0570   67.3930   59.6460 C   0  0  0  0  0  0  0  0  0  0  0  0
  -69.1630   68.0060   60.4850 C   0  0  0  0  0  0  0  0  0  0  0  0
  -69.1100   67.5570   61.9260 C   0  0  0  0  0  0  0  0  0  0  0  0
  -68.1070   67.0100   62.3830 O   0  0  0  0  0  0  0  0  0  0  0  0
  -70.1990   67.7730   62.6480 N   0  0  0  0  0  0  0  0  0  0  0  0
  -63.5790   70.1970   57.9990 N   0  0  0  0  0  0  0  0  0  0  0  0
  -62.7520   69.0400   58.3180 C   0  0  2  0  0  0  0  0  0  0  0  0
  -62.7620   68.0500   57.1630 C   0  0  0  0  0  0  0  0  0  0  0  0
  -63.8260   67.5750   56.7510 O   0  0  0  0  0  0  0  0  0  0  0  0
  -63.2230   68.3800   59.6100 C   0  0  0  0  0  0  0  0  0  0  0  0
  -62.3390   67.2590   60.1000 C   0  0  0  0  0  0  0  0  0  0  0  0
  -62.7890   66.8060   61.4740 C   0  0  0  0  0  0  0  0  0  0  0  0
  -64.2280   66.5730   61.5470 N   0  0  0  0  0  0  0  0  0  0  0  0
  -64.8260   65.4420   61.2020 C   0  0  0  0  0  0  0  0  0  0  0  0
  -64.1060   64.4220   60.7480 N   0  0  0  0  0  0  0  0  0  0  0  0
  -66.1440   65.3340   61.3120 N   0  0  0  0  0  0  0  0  0  0  0  0
  -61.2120   64.3420   55.8020 N   0  0  0  0  0  0  0  0  0  0  0  0
  -60.6500   63.0880   56.2800 C   0  0  2  0  0  0  0  0  0  0  0  0
  -59.5600   62.6310   55.3180 C   0  0  0  0  0  0  0  0  0  0  0  0
  -59.7360   62.6930   54.0970 O   0  0  0  0  0  0  0  0  0  0  0  0
  -61.7340   62.0160   56.4170 C   0  0  0  0  0  0  0  0  0  0  0  0
  -61.1980   60.6550   56.8360 C   0  0  0  0  0  0  0  0  0  0  0  0
  -61.0510   60.5680   58.3390 C   0  0  0  0  0  0  0  0  0  0  0  0
  -60.3030   59.3880   58.7600 N   0  0  0  0  0  0  0  0  0  0  0  0
  -59.7040   59.2700   59.9410 C   0  0  0  0  0  0  0  0  0  0  0  0
  -59.7680   60.2560   60.8230 N   0  0  0  0  0  0  0  0  0  0  0  0
  -59.0360   58.1700   60.2440 N   0  0  0  0  0  0  0  0  0  0  0  0
  -57.2010   59.2660   54.9350 N   0  0  0  0  0  0  0  0  0  0  0  0
  -56.8950   57.9280   55.4150 C   0  0  2  0  0  0  0  0  0  0  0  0
  -56.6190   57.0160   54.2300 C   0  0  0  0  0  0  0  0  0  0  0  0
  -56.9900   57.3120   53.0920 O   0  0  0  0  0  0  0  0  0  0  0  0
  -58.0400   57.3770   56.2680 C   0  0  0  0  0  0  0  0  0  0  0  0
  -59.3460   57.2850   55.5070 C   0  0  0  0  0  0  0  0  0  0  0  0
  -60.3750   56.4470   56.2130 C   0  0  0  0  0  0  0  0  0  0  0  0
  -60.6330   56.7020   57.4090 O   0  0  0  0  0  0  0  0  0  0  0  0
  -60.9310   55.5350   55.5670 O   0  0  0  0  0  0  0  0  0  0  0  0
  2  1  1  6
  3  2  1  0
  4  3  2  0
  5  2  1  0
  6  5  1  0
  7  3  1  0
  8  7  1  0
  9  8  1  0
 10  9  2  0
 11  9  1  0
 12 11  1  0
 13 12  1  0
 14 13  2  0
 12 15  1  6
 16 15  1  0
 18 17  1  0
 19 18  1  0
 20 19  2  0
 18 21  1  1
 23 22  1  0
 24 23  1  0
 25 24  2  0
 26 24  1  0
 27 26  1  0
 28 27  1  0
 29 28  2  0
 30 28  1  0
 31 30  1  0
 32 31  1  0
 33 32  2  0
 31 34  1  1
 35 34  1  0
 36 35  2  0
 37 35  1  0
 39 38  1  1
 40 39  1  0
 41 40  2  0
 42 39  1  0
 43 42  1  0
 44 42  1  0
 45 40  1  0
 46 45  1  1
 47 46  1  0
 48 47  2  0
 49 46  1  0
 50 49  1  0
 51 49  1  0
 52 47  1  0
 53 52  1  1
 54 53  1  0
 55 54  2  0
 56 53  1  0
 57 56  1  0
 56 58  1  1
 60 59  1  1
 61 60  1  0
 62 61  2  0
 63 60  1  0
 64 63  1  0
 65 64  2  0
 66 64  1  0
 67 65  1  0
 68 66  2  0
 68 67  1  0
 69 66  1  0
 70 68  1  0
 71 69  2  0
 72 71  1  0
 72 70  2  0
 74 73  1  6
 75 74  1  0
 76 75  2  0
 77 74  1  0
 78 77  1  0
 79 78  1  0
 80 79  2  0
 81 79  1  0
 82 75  1  0
 83 82  1  0
 84 83  1  0
 85 84  2  0
 83 86  1  1
 87 86  1  0
 88 87  1  0
 89 88  2  0
 90 88  1  0
 92 91  1  6
 93 92  1  0
 94 93  2  0
 95 92  1  0
 96 95  1  0
 97 96  1  0
 98 97  1  0
 99 98  1  0
100 99  1  0
101 99  2  0
103102  1  6
104103  1  0
105104  2  0
106103  1  0
107106  1  0
108107  1  0
109108  1  0
110109  1  0
111110  1  0
112110  2  0
114113  1  6
115114  1  0
116115  2  0
117114  1  0
118117  1  0
119118  1  0
120119  2  0
121119  1  0
M  END
$$$$
