
     RDKit          3D

131127  0  0  0  0  0  0  0  0999 V2000
  114.4960  122.5570   94.8940 N   0  0  0  0  0  0  0  0  0  0  0  0
  115.4310  121.5890   95.4760 C   0  0  2  0  0  0  0  0  0  0  0  0
  114.8030  120.2280   95.7190 C   0  0  0  0  0  0  0  0  0  0  0  0
  115.1330  119.5560   96.6940 O   0  0  0  0  0  0  0  0  0  0  0  0
  116.0570  122.1110   96.7690 C   0  0  0  0  0  0  0  0  0  0  0  0
  113.8870  119.8130   94.8570 N   0  0  0  0  0  0  0  0  0  0  0  0
  113.4570  118.4250   94.7880 C   0  0  2  0  0  0  0  0  0  0  0  0
  114.1000  117.8190   93.5500 C   0  0  0  0  0  0  0  0  0  0  0  0
  113.7510  118.1840   92.4220 O   0  0  0  0  0  0  0  0  0  0  0  0
  111.9390  118.3050   94.7450 C   0  0  2  0  0  0  0  0  0  0  0  0
  111.3870  118.8550   95.9450 O   0  0  0  0  0  0  0  0  0  0  0  0
  111.5500  116.8620   94.6510 C   0  0  0  0  0  0  0  0  0  0  0  0
  115.0480  116.9130   93.7630 N   0  0  0  0  0  0  0  0  0  0  0  0
  115.9330  116.5020   92.6960 C   0  0  0  0  0  0  0  0  0  0  0  0
  116.8830  117.6370   92.4090 C   0  0  0  0  0  0  0  0  0  0  0  0
  116.9600  118.1220   91.2780 O   0  0  0  0  0  0  0  0  0  0  0  0
  117.5900  118.0930   93.4390 N   0  0  0  0  0  0  0  0  0  0  0  0
  118.4270  119.2710   93.2720 C   0  0  2  0  0  0  0  0  0  0  0  0
  119.7070  118.9480   92.5090 C   0  0  0  0  0  0  0  0  0  0  0  0
  120.3670  117.9320   92.7390 O   0  0  0  0  0  0  0  0  0  0  0  0
  118.7310  119.9220   94.6240 C   0  0  0  0  0  0  0  0  0  0  0  0
  119.2240  118.9450   95.6560 C   0  0  0  0  0  0  0  0  0  0  0  0
  119.3600  117.7560   95.3920 O   0  0  0  0  0  0  0  0  0  0  0  0
  119.5000  119.4510   96.8570 N   0  0  0  0  0  0  0  0  0  0  0  0
  123.4080  122.9650   92.3970 N   0  0  0  0  0  0  0  0  0  0  0  0
  123.6740  122.8010   93.8140 C   0  0  2  0  0  0  0  0  0  0  0  0
  123.4190  121.3990   94.3110 C   0  0  0  0  0  0  0  0  0  0  0  0
  122.2790  120.9490   94.4230 O   0  0  0  0  0  0  0  0  0  0  0  0
  122.9100  123.7990   94.6620 C   0  0  0  0  0  0  0  0  0  0  0  0
  123.9570  125.1900   94.8850 S   0  0  0  0  0  0  0  0  0  0  0  0
  124.5200  120.7040   94.5170 N   0  0  0  0  0  0  0  0  0  0  0  0
  124.7350  119.7670   95.5910 C   0  0  2  0  0  0  0  0  0  0  0  0
  125.2010  120.5750   96.7950 C   0  0  0  0  0  0  0  0  0  0  0  0
  125.2670  121.7990   96.7380 O   0  0  0  0  0  0  0  0  0  0  0  0
  125.7790  118.7480   95.1630 C   0  0  0  0  0  0  0  0  0  0  0  0
  125.7350  117.5180   95.9580 C   0  0  0  0  0  0  0  0  0  0  0  0
  124.8830  117.3690   96.8140 O   0  0  0  0  0  0  0  0  0  0  0  0
  126.6710  116.6260   95.7160 N   0  0  0  0  0  0  0  0  0  0  0  0
  125.4940  119.8990   97.9000 N   0  0  0  0  0  0  0  0  0  0  0  0
  125.9760  120.4740   99.1630 C   0  0  2  0  0  0  0  0  0  0  0  0
  125.1040  121.5770   99.7350 C   0  0  0  0  0  0  0  0  0  0  0  0
  125.5890  122.3550  100.5500 O   0  0  0  0  0  0  0  0  0  0  0  0
  127.3600  121.1070   99.0750 C   0  0  0  0  0  0  0  0  0  0  0  0
  128.4350  120.2410   98.5360 C   0  0  0  0  0  0  0  0  0  0  0  0
  128.7940  119.0860   99.1760 C   0  0  0  0  0  0  0  0  0  0  0  0
  129.1840  120.6490   97.4580 C   0  0  0  0  0  0  0  0  0  0  0  0
  129.8070  118.3070   98.7110 C   0  0  0  0  0  0  0  0  0  0  0  0
  130.2120  119.8910   96.9880 C   0  0  0  0  0  0  0  0  0  0  0  0
  130.5170  118.7110   97.6180 C   0  0  0  0  0  0  0  0  0  0  0  0
  131.5440  117.9110   97.1860 O   0  0  0  0  0  0  0  0  0  0  0  0
  123.8490  121.6840   99.3320 N   0  0  0  0  0  0  0  0  0  0  0  0
  123.1580  122.9490   99.4900 C   0  0  2  0  0  0  0  0  0  0  0  0
  122.3960  123.0200  100.8000 C   0  0  0  0  0  0  0  0  0  0  0  0
  122.3220  124.0920  101.4030 O   0  0  0  0  0  0  0  0  0  0  0  0
  122.2260  123.1650   98.3070 C   0  0  0  0  0  0  0  0  0  0  0  0
  121.8490  121.8930  101.2560 N   0  0  0  0  0  0  0  0  0  0  0  0
  120.9240  121.7910  102.3900 C   0  0  2  0  0  0  0  0  0  0  0  0
  119.7450  122.7480  102.2120 C   0  0  0  0  0  0  0  0  0  0  0  0
  119.5730  123.7330  102.9250 O   0  0  0  0  0  0  0  0  0  0  0  0
  121.6480  121.9950  103.7180 C   0  0  2  0  0  0  0  0  0  0  0  0
  122.7820  121.1320  103.7410 O   0  0  0  0  0  0  0  0  0  0  0  0
  120.7880  121.5850  104.8720 C   0  0  0  0  0  0  0  0  0  0  0  0
  116.3650  121.6920  101.9800 N   0  0  0  0  0  0  0  0  0  0  0  0
  115.0690  121.2380  102.4500 C   0  0  2  0  0  0  0  0  0  0  0  0
  115.1510  121.1370  103.9510 C   0  0  0  0  0  0  0  0  0  0  0  0
  116.1130  121.5760  104.5680 O   0  0  0  0  0  0  0  0  0  0  0  0
  114.6490  119.8570  101.9640 C   0  0  2  0  0  0  0  0  0  0  0  0
  115.5470  118.8940  102.5130 O   0  0  0  0  0  0  0  0  0  0  0  0
  114.5950  119.7290  100.4470 C   0  0  0  0  0  0  0  0  0  0  0  0
  114.3040  117.9140  104.8660 N   0  0  0  0  0  0  0  0  0  0  0  0
  114.7360  116.5310  104.7450 C   0  0  2  0  0  0  0  0  0  0  0  0
  116.2510  116.4280  104.7260 C   0  0  0  0  0  0  0  0  0  0  0  0
  116.8230  115.6580  105.4950 O   0  0  0  0  0  0  0  0  0  0  0  0
  114.1460  115.8960  103.4900 C   0  0  0  0  0  0  0  0  0  0  0  0
  112.6870  115.5200  103.5760 C   0  0  0  0  0  0  0  0  0  0  0  0
  111.7500  116.6360  103.2370 C   0  0  0  0  0  0  0  0  0  0  0  0
  112.2180  117.7430  102.9300 O   0  0  0  0  0  0  0  0  0  0  0  0
  110.5300  116.3980  103.2460 O   0  0  0  0  0  0  0  0  0  0  0  0
  116.9170  117.2280  103.8810 N   0  0  0  0  0  0  0  0  0  0  0  0
  118.3640  117.1270  103.7340 C   0  0  2  0  0  0  0  0  0  0  0  0
  119.0800  117.5010  105.0060 C   0  0  0  0  0  0  0  0  0  0  0  0
  120.1220  116.9230  105.3210 O   0  0  0  0  0  0  0  0  0  0  0  0
  118.8590  118.0150  102.6090 C   0  0  0  0  0  0  0  0  0  0  0  0
  118.2940  117.6810  101.2790 C   0  0  0  0  0  0  0  0  0  0  0  0
  118.8970  118.5030  100.1770 C   0  0  0  0  0  0  0  0  0  0  0  0
  119.8020  119.2990  100.4590 O   0  0  0  0  0  0  0  0  0  0  0  0
  118.4450  118.3870   99.0240 O   0  0  0  0  0  0  0  0  0  0  0  0
  118.4210  114.1390  107.2380 N   0  0  0  0  0  0  0  0  0  0  0  0
  119.2110  112.9760  106.8620 C   0  0  2  0  0  0  0  0  0  0  0  0
  120.6840  113.2710  107.0350 C   0  0  0  0  0  0  0  0  0  0  0  0
  121.4380  112.4470  107.5580 O   0  0  0  0  0  0  0  0  0  0  0  0
  118.8990  112.5730  105.4190 C   0  0  0  0  0  0  0  0  0  0  0  0
  119.5910  111.3230  105.1050 C   0  0  0  0  0  0  0  0  0  0  0  0
  117.4680  112.3800  105.2600 C   0  0  0  0  0  0  0  0  0  0  0  0
  118.7540  111.3150  110.9520 N   0  0  0  0  0  0  0  0  0  0  0  0
  117.5010  111.1120  111.6620 C   0  0  2  0  0  0  0  0  0  0  0  0
  116.5390  110.4080  110.7270 C   0  0  0  0  0  0  0  0  0  0  0  0
  116.4140  110.7900  109.5600 O   0  0  0  0  0  0  0  0  0  0  0  0
  116.9210  112.4510  112.1480 C   0  0  2  0  0  0  0  0  0  0  0  0
  117.7800  113.0240  113.2510 C   0  0  0  0  0  0  0  0  0  0  0  0
  115.5410  112.2970  112.6710 C   0  0  0  0  0  0  0  0  0  0  0  0
  117.4010  114.3740  113.5990 C   0  0  0  0  0  0  0  0  0  0  0  0
  115.8740  109.3700  111.2360 N   0  0  0  0  0  0  0  0  0  0  0  0
  114.9880  108.5410  110.4300 C   0  0  2  0  0  0  0  0  0  0  0  0
  113.7950  109.3620  109.9690 C   0  0  0  0  0  0  0  0  0  0  0  0
  112.9080  109.6950  110.7570 O   0  0  0  0  0  0  0  0  0  0  0  0
  114.5340  107.3260  111.2270 C   0  0  0  0  0  0  0  0  0  0  0  0
  113.9280  106.2530  110.3520 C   0  0  0  0  0  0  0  0  0  0  0  0
  113.9250  106.4180  109.1170 O   0  0  0  0  0  0  0  0  0  0  0  0
  113.4420  105.2420  110.8950 O   0  0  0  0  0  0  0  0  0  0  0  0
  113.7760  109.6710  108.6820 N   0  0  0  0  0  0  0  0  0  0  0  0
  112.7420  110.4740  108.0590 C   0  0  2  0  0  0  0  0  0  0  0  0
  111.3910  109.7680  108.0000 C   0  0  0  0  0  0  0  0  0  0  0  0
  110.3770  110.4310  107.7660 O   0  0  0  0  0  0  0  0  0  0  0  0
  113.2330  110.8350  106.6700 C   0  0  0  0  0  0  0  0  0  0  0  0
  112.6260  111.8720  105.7610 C   0  0  0  0  0  0  0  0  0  0  0  0
  113.7740  112.3670  104.9770 C   0  0  0  0  0  0  0  0  0  0  0  0
  111.6240  111.2500  104.8270 C   0  0  0  0  0  0  0  0  0  0  0  0
  111.3540  108.4510  108.1840 N   0  0  0  0  0  0  0  0  0  0  0  0
  110.1010  107.7170  108.2520 C   0  0  2  0  0  0  0  0  0  0  0  0
  109.3220  108.1270  109.4980 C   0  0  0  0  0  0  0  0  0  0  0  0
  109.9200  108.5290  110.4960 O   0  0  0  0  0  0  0  0  0  0  0  0
  110.3810  106.2190  108.2830 C   0  0  0  0  0  0  0  0  0  0  0  0
  109.1950  105.4640  108.3980 O   0  0  0  0  0  0  0  0  0  0  0  0
  107.9880  108.0580  109.4580 N   0  0  0  0  0  0  0  0  0  0  0  0
  107.1980  108.4650  110.6270 C   0  0  2  0  0  0  0  0  0  0  0  0
  107.4070  107.6300  111.8660 C   0  0  0  0  0  0  0  0  0  0  0  0
  107.0910  108.1140  112.9520 O   0  0  0  0  0  0  0  0  0  0  0  0
  105.7570  108.3530  110.1270 C   0  0  0  0  0  0  0  0  0  0  0  0
  105.8640  108.5880  108.6910 C   0  0  0  0  0  0  0  0  0  0  0  0
  107.1440  107.9560  108.2590 C   0  0  0  0  0  0  0  0  0  0  0  0
  2  1  1  0
  3  2  1  0
  4  3  2  0
  2  5  1  1
  6  3  1  0
  7  6  1  6
  8  7  1  0
  9  8  2  0
 10  7  1  0
 11 10  1  0
 10 12  1  1
 13  8  1  0
 14 13  1  0
 15 14  1  0
 16 15  2  0
 17 15  1  0
 18 17  1  0
 19 18  1  0
 20 19  2  0
 18 21  1  1
 22 21  1  0
 23 22  2  0
 24 22  1  0
 26 25  1  6
 27 26  1  0
 28 27  2  0
 29 26  1  0
 30 29  1  0
 31 27  1  0
 32 31  1  0
 33 32  1  0
 34 33  2  0
 32 35  1  6
 36 35  1  0
 37 36  2  0
 38 36  1  0
 39 33  1  0
 40 39  1  0
 41 40  1  0
 42 41  2  0
 40 43  1  6
 44 43  1  0
 45 44  2  0
 46 44  1  0
 47 45  1  0
 48 46  2  0
 49 48  1  0
 49 47  2  0
 50 49  1  0
 51 41  1  0
 52 51  1  0
 53 52  1  0
 54 53  2  0
 52 55  1  6
 56 53  1  0
 57 56  1  6
 58 57  1  0
 59 58  2  0
 60 57  1  0
 61 60  1  0
 60 62  1  1
 64 63  1  6
 65 64  1  0
 66 65  2  0
 67 64  1  0
 68 67  1  0
 67 69  1  6
 71 70  1  6
 72 71  1  0
 73 72  2  0
 74 71  1  0
 75 74  1  0
 76 75  1  0
 77 76  2  0
 78 76  1  0
 79 72  1  0
 80 79  1  0
 81 80  1  0
 82 81  2  0
 80 83  1  6
 84 83  1  0
 85 84  1  0
 86 85  2  0
 87 85  1  0
 89 88  1  6
 90 89  1  0
 91 90  2  0
 92 89  1  0
 93 92  1  0
 94 92  1  0
 96 95  1  6
 97 96  1  0
 98 97  2  0
 99 96  1  0
100 99  1  0
 99101  1  1
102100  1  0
103 97  1  0
104103  1  0
105104  1  0
106105  2  0
104107  1  1
108107  1  0
109108  2  0
110108  1  0
111105  1  0
112111  1  0
113112  1  0
114113  2  0
112115  1  6
116115  1  0
117116  1  0
118116  1  0
119113  1  0
120119  1  0
121120  1  0
122121  2  0
120123  1  1
124123  1  0
125121  1  0
126125  1  0
126127  1  1
128127  2  0
129126  1  0
130129  1  0
131130  1  0
131125  1  0
M  END
$$$$
