
     RDKit          3D

143140  0  0  0  0  0  0  0  0999 V2000
  135.2900  126.9240   94.9330 N   0  0  0  0  0  0  0  0  0  0  0  0
  134.3540  127.8960   95.5080 C   0  0  2  0  0  0  0  0  0  0  0  0
  134.9860  129.2550   95.7530 C   0  0  0  0  0  0  0  0  0  0  0  0
  134.6540  129.9310   96.7250 O   0  0  0  0  0  0  0  0  0  0  0  0
  133.7190  127.3790   96.7980 C   0  0  0  0  0  0  0  0  0  0  0  0
  135.9100  129.6650   94.8960 N   0  0  0  0  0  0  0  0  0  0  0  0
  136.3460  131.0520   94.8280 C   0  0  2  0  0  0  0  0  0  0  0  0
  135.7130  131.6580   93.5850 C   0  0  0  0  0  0  0  0  0  0  0  0
  136.0680  131.2910   92.4590 O   0  0  0  0  0  0  0  0  0  0  0  0
  137.8640  131.1660   94.7940 C   0  0  2  0  0  0  0  0  0  0  0  0
  138.4060  130.6150   95.9980 O   0  0  0  0  0  0  0  0  0  0  0  0
  138.2600  132.6070   94.7010 C   0  0  0  0  0  0  0  0  0  0  0  0
  134.7670  132.5680   93.7910 N   0  0  0  0  0  0  0  0  0  0  0  0
  133.8910  132.9810   92.7180 C   0  0  0  0  0  0  0  0  0  0  0  0
  132.9380  131.8490   92.4260 C   0  0  0  0  0  0  0  0  0  0  0  0
  132.8660  131.3630   91.2950 O   0  0  0  0  0  0  0  0  0  0  0  0
  132.2220  131.3970   93.4520 N   0  0  0  0  0  0  0  0  0  0  0  0
  131.3820  130.2230   93.2820 C   0  0  2  0  0  0  0  0  0  0  0  0
  130.1090  130.5490   92.5100 C   0  0  0  0  0  0  0  0  0  0  0  0
  129.4500  131.5680   92.7340 O   0  0  0  0  0  0  0  0  0  0  0  0
  131.0670  129.5750   94.6320 C   0  0  0  0  0  0  0  0  0  0  0  0
  130.5720  130.5560   95.6600 C   0  0  0  0  0  0  0  0  0  0  0  0
  130.4410  131.7450   95.3930 O   0  0  0  0  0  0  0  0  0  0  0  0
  130.2860  130.0530   96.8600 N   0  0  0  0  0  0  0  0  0  0  0  0
  126.3930  126.5470   92.3800 N   0  0  0  0  0  0  0  0  0  0  0  0
  126.1180  126.7140   93.7960 C   0  0  2  0  0  0  0  0  0  0  0  0
  126.3750  128.1160   94.2920 C   0  0  0  0  0  0  0  0  0  0  0  0
  127.5160  128.5620   94.4110 O   0  0  0  0  0  0  0  0  0  0  0  0
  126.8720  125.7140   94.6510 C   0  0  0  0  0  0  0  0  0  0  0  0
  125.8180  124.3280   94.8690 S   0  0  0  0  0  0  0  0  0  0  0  0
  125.2750  128.8160   94.4910 N   0  0  0  0  0  0  0  0  0  0  0  0
  125.0570  129.7560   95.5620 C   0  0  2  0  0  0  0  0  0  0  0  0
  124.5800  128.9510   96.7640 C   0  0  0  0  0  0  0  0  0  0  0  0
  124.5100  127.7270   96.7080 O   0  0  0  0  0  0  0  0  0  0  0  0
  124.0200  130.7770   95.1260 C   0  0  0  0  0  0  0  0  0  0  0  0
  124.0650  132.0080   95.9180 C   0  0  0  0  0  0  0  0  0  0  0  0
  124.9110  132.1550   96.7790 O   0  0  0  0  0  0  0  0  0  0  0  0
  123.1330  132.9040   95.6690 N   0  0  0  0  0  0  0  0  0  0  0  0
  124.2840  129.6300   97.8660 N   0  0  0  0  0  0  0  0  0  0  0  0
  123.7910  129.0580   99.1270 C   0  0  2  0  0  0  0  0  0  0  0  0
  124.6550  127.9530   99.7050 C   0  0  0  0  0  0  0  0  0  0  0  0
  124.1620  127.1780  100.5190 O   0  0  0  0  0  0  0  0  0  0  0  0
  122.4050  128.4310   99.0310 C   0  0  0  0  0  0  0  0  0  0  0  0
  121.3370  129.3000   98.4840 C   0  0  0  0  0  0  0  0  0  0  0  0
  120.9790  130.4580   99.1200 C   0  0  0  0  0  0  0  0  0  0  0  0
  120.5940  128.8940   97.4010 C   0  0  0  0  0  0  0  0  0  0  0  0
  119.9710  131.2400   98.6470 C   0  0  0  0  0  0  0  0  0  0  0  0
  119.5710  129.6540   96.9240 C   0  0  0  0  0  0  0  0  0  0  0  0
  119.2670  130.8370   97.5500 C   0  0  0  0  0  0  0  0  0  0  0  0
  118.2460  131.6410   97.1100 O   0  0  0  0  0  0  0  0  0  0  0  0
  125.9130  127.8410   99.3110 N   0  0  0  0  0  0  0  0  0  0  0  0
  126.5980  126.5730   99.4760 C   0  0  2  0  0  0  0  0  0  0  0  0
  127.3510  126.5010  100.7910 C   0  0  0  0  0  0  0  0  0  0  0  0
  127.4170  125.4300  101.3960 O   0  0  0  0  0  0  0  0  0  0  0  0
  127.5360  126.3510   98.2990 C   0  0  0  0  0  0  0  0  0  0  0  0
  127.9000  127.6270  101.2480 N   0  0  0  0  0  0  0  0  0  0  0  0
  128.8180  127.7270  102.3880 C   0  0  2  0  0  0  0  0  0  0  0  0
  129.9940  126.7650  102.2190 C   0  0  0  0  0  0  0  0  0  0  0  0
  130.1580  125.7810  102.9340 O   0  0  0  0  0  0  0  0  0  0  0  0
  128.0840  127.5280  103.7110 C   0  0  2  0  0  0  0  0  0  0  0  0
  126.9540  128.3960  103.7260 O   0  0  0  0  0  0  0  0  0  0  0  0
  128.9380  127.9360  104.8700 C   0  0  0  0  0  0  0  0  0  0  0  0
  133.3800  127.8070  102.0060 N   0  0  0  0  0  0  0  0  0  0  0  0
  134.6740  128.2570  102.4840 C   0  0  2  0  0  0  0  0  0  0  0  0
  134.5830  128.3610  103.9840 C   0  0  0  0  0  0  0  0  0  0  0  0
  133.6150  127.9260  104.5960 O   0  0  0  0  0  0  0  0  0  0  0  0
  135.1020  129.6350  101.9980 C   0  0  2  0  0  0  0  0  0  0  0  0
  134.2050  130.6030  102.5400 O   0  0  0  0  0  0  0  0  0  0  0  0
  135.1670  129.7620  100.4810 C   0  0  0  0  0  0  0  0  0  0  0  0
  135.4370  131.5820  104.9000 N   0  0  0  0  0  0  0  0  0  0  0  0
  135.0110  132.9670  104.7740 C   0  0  2  0  0  0  0  0  0  0  0  0
  133.4970  133.0750  104.7440 C   0  0  0  0  0  0  0  0  0  0  0  0
  132.9220  133.8490  105.5090 O   0  0  0  0  0  0  0  0  0  0  0  0
  135.6110  133.5970  103.5210 C   0  0  0  0  0  0  0  0  0  0  0  0
  137.0710  133.9670  103.6160 C   0  0  0  0  0  0  0  0  0  0  0  0
  138.0070  132.8470  103.2850 C   0  0  0  0  0  0  0  0  0  0  0  0
  137.5350  131.7420  102.9770 O   0  0  0  0  0  0  0  0  0  0  0  0
  139.2270  133.0810  103.3010 O   0  0  0  0  0  0  0  0  0  0  0  0
  132.8330  132.2760  103.8970 N   0  0  0  0  0  0  0  0  0  0  0  0
  131.3870  132.3830  103.7410 C   0  0  2  0  0  0  0  0  0  0  0  0
  130.6620  132.0130  105.0090 C   0  0  0  0  0  0  0  0  0  0  0  0
  129.6200  132.5960  105.3160 O   0  0  0  0  0  0  0  0  0  0  0  0
  130.8950  131.4960  102.6140 C   0  0  0  0  0  0  0  0  0  0  0  0
  131.4700  131.8250  101.2870 C   0  0  0  0  0  0  0  0  0  0  0  0
  130.8720  131.0030  100.1820 C   0  0  0  0  0  0  0  0  0  0  0  0
  129.9620  130.2110  100.4600 O   0  0  0  0  0  0  0  0  0  0  0  0
  131.3320  131.1160   99.0320 O   0  0  0  0  0  0  0  0  0  0  0  0
  131.2100  131.0830  105.7750 N   0  0  0  0  0  0  0  0  0  0  0  0
  130.6480  130.8290  107.0840 C   0  0  2  0  0  0  0  0  0  0  0  0
  130.9080  131.9870  108.0270 C   0  0  0  0  0  0  0  0  0  0  0  0
  130.0690  132.2700  108.8860 O   0  0  0  0  0  0  0  0  0  0  0  0
  131.1980  129.5480  107.6810 C   0  0  0  0  0  0  0  0  0  0  0  0
  130.6100  129.2770  109.0280 C   0  0  0  0  0  0  0  0  0  0  0  0
  129.3240  128.8200  109.1490 C   0  0  0  0  0  0  0  0  0  0  0  0
  131.3250  129.5090  110.1780 C   0  0  0  0  0  0  0  0  0  0  0  0
  128.7740  128.5830  110.3700 C   0  0  0  0  0  0  0  0  0  0  0  0
  130.7800  129.2880  111.4020 C   0  0  0  0  0  0  0  0  0  0  0  0
  129.5050  128.8190  111.4910 C   0  0  0  0  0  0  0  0  0  0  0  0
  128.9490  128.5770  112.7180 O   0  0  0  0  0  0  0  0  0  0  0  0
  131.3200  135.3770  107.2390 N   0  0  0  0  0  0  0  0  0  0  0  0
  130.5370  136.5420  106.8560 C   0  0  2  0  0  0  0  0  0  0  0  0
  129.0620  136.2530  107.0210 C   0  0  0  0  0  0  0  0  0  0  0  0
  128.3070  137.0810  107.5380 O   0  0  0  0  0  0  0  0  0  0  0  0
  130.8590  136.9420  105.4150 C   0  0  0  0  0  0  0  0  0  0  0  0
  130.1740  138.1940  105.0950 C   0  0  0  0  0  0  0  0  0  0  0  0
  132.2920  137.1290  105.2640 C   0  0  0  0  0  0  0  0  0  0  0  0
  130.9750  138.2080  110.9470 N   0  0  0  0  0  0  0  0  0  0  0  0
  132.2240  138.4070  111.6640 C   0  0  2  0  0  0  0  0  0  0  0  0
  133.1940  139.1060  110.7340 C   0  0  0  0  0  0  0  0  0  0  0  0
  133.3250  138.7210  109.5690 O   0  0  0  0  0  0  0  0  0  0  0  0
  132.7950  137.0660  112.1570 C   0  0  2  0  0  0  0  0  0  0  0  0
  131.9270  136.4980  113.2550 C   0  0  0  0  0  0  0  0  0  0  0  0
  134.1730  137.2160  112.6880 C   0  0  0  0  0  0  0  0  0  0  0  0
  132.2980  135.1480  113.6070 C   0  0  0  0  0  0  0  0  0  0  0  0
  133.8600  140.1420  111.2460 N   0  0  0  0  0  0  0  0  0  0  0  0
  134.7550  140.9660  110.4440 C   0  0  2  0  0  0  0  0  0  0  0  0
  135.9470  140.1400  109.9920 C   0  0  0  0  0  0  0  0  0  0  0  0
  136.8280  139.8050  110.7860 O   0  0  0  0  0  0  0  0  0  0  0  0
  135.2080  142.1800  111.2430 C   0  0  0  0  0  0  0  0  0  0  0  0
  135.8240  143.2500  110.3700 C   0  0  0  0  0  0  0  0  0  0  0  0
  135.8340  143.0830  109.1350 O   0  0  0  0  0  0  0  0  0  0  0  0
  136.3100  144.2600  110.9140 O   0  0  0  0  0  0  0  0  0  0  0  0
  135.9730  139.8280  108.7060 N   0  0  0  0  0  0  0  0  0  0  0  0
  137.0080  139.0210  108.0910 C   0  0  2  0  0  0  0  0  0  0  0  0
  138.3620  139.7210  108.0390 C   0  0  0  0  0  0  0  0  0  0  0  0
  139.3740  139.0540  107.8130 O   0  0  0  0  0  0  0  0  0  0  0  0
  136.5240  138.6590  106.6990 C   0  0  0  0  0  0  0  0  0  0  0  0
  137.1330  137.6180  105.7960 C   0  0  0  0  0  0  0  0  0  0  0  0
  135.9880  137.1260  105.0050 C   0  0  0  0  0  0  0  0  0  0  0  0
  138.1430  138.2350  104.8670 C   0  0  0  0  0  0  0  0  0  0  0  0
  138.4030  141.0390  108.2220 N   0  0  0  0  0  0  0  0  0  0  0  0
  139.6580  141.7680  108.2960 C   0  0  2  0  0  0  0  0  0  0  0  0
  140.4280  141.3560  109.5480 C   0  0  0  0  0  0  0  0  0  0  0  0
  139.8220  140.9590  110.5420 O   0  0  0  0  0  0  0  0  0  0  0  0
  139.3840  143.2660  108.3230 C   0  0  0  0  0  0  0  0  0  0  0  0
  140.5720  144.0180  108.4440 O   0  0  0  0  0  0  0  0  0  0  0  0
  141.7620  141.4210  109.5160 N   0  0  0  0  0  0  0  0  0  0  0  0
  142.5440  141.0120  110.6910 C   0  0  2  0  0  0  0  0  0  0  0  0
  142.3300  141.8500  111.9270 C   0  0  0  0  0  0  0  0  0  0  0  0
  142.6370  141.3660  113.0160 O   0  0  0  0  0  0  0  0  0  0  0  0
  143.9880  141.1170  110.1990 C   0  0  0  0  0  0  0  0  0  0  0  0
  143.8890  140.8810  108.7630 C   0  0  0  0  0  0  0  0  0  0  0  0
  142.6150  141.5170  108.3220 C   0  0  0  0  0  0  0  0  0  0  0  0
  2  1  1  0
  3  2  1  0
  4  3  2  0
  2  5  1  1
  6  3  1  0
  7  6  1  6
  8  7  1  0
  9  8  2  0
 10  7  1  0
 11 10  1  0
 10 12  1  1
 13  8  1  0
 14 13  1  0
 15 14  1  0
 16 15  2  0
 17 15  1  0
 18 17  1  0
 19 18  1  0
 20 19  2  0
 18 21  1  1
 22 21  1  0
 23 22  2  0
 24 22  1  0
 26 25  1  6
 27 26  1  0
 28 27  2  0
 29 26  1  0
 30 29  1  0
 31 27  1  0
 32 31  1  0
 33 32  1  0
 34 33  2  0
 32 35  1  6
 36 35  1  0
 37 36  2  0
 38 36  1  0
 39 33  1  0
 40 39  1  0
 41 40  1  0
 42 41  2  0
 40 43  1  6
 44 43  1  0
 45 44  2  0
 46 44  1  0
 47 45  1  0
 48 46  2  0
 49 48  1  0
 49 47  2  0
 50 49  1  0
 51 41  1  0
 52 51  1  0
 53 52  1  0
 54 53  2  0
 52 55  1  6
 56 53  1  0
 57 56  1  6
 58 57  1  0
 59 58  2  0
 60 57  1  0
 61 60  1  0
 60 62  1  1
 64 63  1  6
 65 64  1  0
 66 65  2  0
 67 64  1  0
 68 67  1  0
 67 69  1  6
 71 70  1  6
 72 71  1  0
 73 72  2  0
 74 71  1  0
 75 74  1  0
 76 75  1  0
 77 76  2  0
 78 76  1  0
 79 72  1  0
 80 79  1  0
 81 80  1  0
 82 81  2  0
 80 83  1  6
 84 83  1  0
 85 84  1  0
 86 85  2  0
 87 85  1  0
 88 81  1  0
 89 88  1  0
 90 89  1  0
 91 90  2  0
 89 92  1  1
 93 92  1  0
 94 93  2  0
 95 93  1  0
 96 94  1  0
 97 95  2  0
 98 97  1  0
 98 96  2  0
 99 98  1  0
101100  1  6
102101  1  0
103102  2  0
104101  1  0
105104  1  0
106104  1  0
108107  1  6
109108  1  0
110109  2  0
111108  1  0
112111  1  0
111113  1  1
114112  1  0
115109  1  0
116115  1  0
117116  1  0
118117  2  0
116119  1  1
120119  1  0
121120  2  0
122120  1  0
123117  1  0
124123  1  0
125124  1  0
126125  2  0
124127  1  6
128127  1  0
129128  1  0
130128  1  0
131125  1  0
132131  1  0
133132  1  0
134133  2  0
132135  1  1
136135  1  0
137133  1  0
138137  1  0
138139  1  1
140139  2  0
141138  1  0
142141  1  0
143142  1  0
143137  1  0
M  END
$$$$
