
     RDKit          3D

124122  0  0  0  0  0  0  0  0999 V2000
  -30.8370   24.1850  -21.9610 N   0  0  0  0  0  0  0  0  0  0  0  0
  -30.8180   24.1290  -20.5090 C   0  0  2  0  0  0  0  0  0  0  0  0
  -31.3430   25.4290  -19.9080 C   0  0  0  0  0  0  0  0  0  0  0  0
  -31.3630   26.4810  -20.5540 O   0  0  0  0  0  0  0  0  0  0  0  0
  -29.3940   23.8540  -20.0210 C   0  0  0  0  0  0  0  0  0  0  0  0
  -29.0180   22.3610  -20.1240 C   0  0  0  0  0  0  0  0  0  0  0  0
  -28.6150   21.9470  -21.5340 C   0  0  0  0  0  0  0  0  0  0  0  0
  -28.6880   22.7970  -22.4610 O   0  0  0  0  0  0  0  0  0  0  0  0
  -28.2330   20.7650  -21.7300 O   0  0  0  0  0  0  0  0  0  0  0  0
  -31.7830   25.3440  -18.6500 N   0  0  0  0  0  0  0  0  0  0  0  0
  -32.1090   26.5370  -17.8660 C   0  0  2  0  0  0  0  0  0  0  0  0
  -30.7890   27.1500  -17.4340 C   0  0  0  0  0  0  0  0  0  0  0  0
  -30.1410   26.6720  -16.4920 O   0  0  0  0  0  0  0  0  0  0  0  0
  -32.9960   26.1820  -16.6670 C   0  0  0  0  0  0  0  0  0  0  0  0
  -33.1970   27.3620  -15.6930 C   0  0  0  0  0  0  0  0  0  0  0  0
  -33.7910   27.1380  -14.6140 O   0  0  0  0  0  0  0  0  0  0  0  0
  -32.7700   28.5080  -15.9930 O   0  0  0  0  0  0  0  0  0  0  0  0
  -29.8550   29.7590  -15.8220 N   0  0  0  0  0  0  0  0  0  0  0  0
  -29.6560   30.2800  -14.4670 C   0  0  2  0  0  0  0  0  0  0  0  0
  -29.1600   29.2160  -13.4920 C   0  0  0  0  0  0  0  0  0  0  0  0
  -28.5690   29.5700  -12.4670 O   0  0  0  0  0  0  0  0  0  0  0  0
  -30.9390   30.9110  -13.9170 C   0  0  2  0  0  0  0  0  0  0  0  0
  -31.8580   29.8840  -13.5090 O   0  0  0  0  0  0  0  0  0  0  0  0
  -31.6020   31.7610  -14.9730 C   0  0  0  0  0  0  0  0  0  0  0  0
  -29.3520   27.9300  -13.7930 N   0  0  0  0  0  0  0  0  0  0  0  0
  -28.8650   26.8460  -12.9450 C   0  0  2  0  0  0  0  0  0  0  0  0
  -27.8460   25.9470  -13.6340 C   0  0  0  0  0  0  0  0  0  0  0  0
  -27.4920   24.8970  -13.0800 O   0  0  0  0  0  0  0  0  0  0  0  0
  -30.0370   25.9990  -12.4630 C   0  0  0  0  0  0  0  0  0  0  0  0
  -30.9320   26.7280  -11.4520 C   0  0  0  0  0  0  0  0  0  0  0  0
  -32.0280   25.8000  -10.9100 C   0  0  0  0  0  0  0  0  0  0  0  0
  -33.0840   25.6860  -11.9040 N   0  0  0  0  0  0  0  0  0  0  0  0
  -34.0720   24.7960  -11.8520 C   0  0  0  0  0  0  0  0  0  0  0  0
  -34.9850   24.7610  -12.8200 N   0  0  0  0  0  0  0  0  0  0  0  0
  -34.1380   23.9400  -10.8460 N   0  0  0  0  0  0  0  0  0  0  0  0
  -27.3800   26.3000  -14.8330 N   0  0  0  0  0  0  0  0  0  0  0  0
  -26.5410   25.4010  -15.6220 C   0  0  2  0  0  0  0  0  0  0  0  0
  -25.0970   25.8980  -15.6250 C   0  0  0  0  0  0  0  0  0  0  0  0
  -24.8220   27.0300  -16.0400 O   0  0  0  0  0  0  0  0  0  0  0  0
  -27.0780   25.2650  -17.0470 C   0  0  0  0  0  0  0  0  0  0  0  0
  -26.3530   24.2450  -17.8780 C   0  0  0  0  0  0  0  0  0  0  0  0
  -26.2940   22.9120  -17.4770 C   0  0  0  0  0  0  0  0  0  0  0  0
  -25.7330   24.6180  -19.0740 C   0  0  0  0  0  0  0  0  0  0  0  0
  -25.6290   21.9570  -18.2460 C   0  0  0  0  0  0  0  0  0  0  0  0
  -25.0710   23.6660  -19.8710 C   0  0  0  0  0  0  0  0  0  0  0  0
  -25.0120   22.3360  -19.4590 C   0  0  0  0  0  0  0  0  0  0  0  0
  -24.1900   25.0540  -15.1400 N   0  0  0  0  0  0  0  0  0  0  0  0
  -22.7520   25.3010  -15.1280 C   0  0  2  0  0  0  0  0  0  0  0  0
  -22.1610   24.1700  -15.9480 C   0  0  0  0  0  0  0  0  0  0  0  0
  -21.9490   23.0650  -15.4370 O   0  0  0  0  0  0  0  0  0  0  0  0
  -22.1440   25.2990  -13.7270 C   0  0  0  0  0  0  0  0  0  0  0  0
  -22.6130   26.4020  -12.8260 C   0  0  0  0  0  0  0  0  0  0  0  0
  -23.9170   26.8510  -12.7920 N   0  0  0  0  0  0  0  0  0  0  0  0
  -21.9510   27.1090  -11.8780 C   0  0  0  0  0  0  0  0  0  0  0  0
  -24.0310   27.8050  -11.8820 C   0  0  0  0  0  0  0  0  0  0  0  0
  -22.8520   27.9820  -11.3140 N   0  0  0  0  0  0  0  0  0  0  0  0
  -19.2930   21.9720  -14.7610 N   0  0  0  0  0  0  0  0  0  0  0  0
  -19.5170   20.9990  -13.6950 C   0  0  2  0  0  0  0  0  0  0  0  0
  -20.4980   19.8990  -14.0710 C   0  0  0  0  0  0  0  0  0  0  0  0
  -20.4260   18.8080  -13.5020 O   0  0  0  0  0  0  0  0  0  0  0  0
  -20.0300   21.7030  -12.4360 C   0  0  0  0  0  0  0  0  0  0  0  0
  -21.3930   20.1600  -15.0150 N   0  0  0  0  0  0  0  0  0  0  0  0
  -22.4340   19.2110  -15.3820 C   0  0  2  0  0  0  0  0  0  0  0  0
  -21.8640   17.9520  -16.0350 C   0  0  0  0  0  0  0  0  0  0  0  0
  -20.9460   18.0130  -16.8520 O   0  0  0  0  0  0  0  0  0  0  0  0
  -23.4230   19.8960  -16.3270 C   0  0  0  0  0  0  0  0  0  0  0  0
  -24.2200   18.9590  -17.0430 O   0  0  0  0  0  0  0  0  0  0  0  0
  -22.4150   16.7990  -15.6640 N   0  0  0  0  0  0  0  0  0  0  0  0
  -22.1290   15.5310  -16.3330 C   0  0  2  0  0  0  0  0  0  0  0  0
  -23.3090   15.2370  -17.2570 C   0  0  0  0  0  0  0  0  0  0  0  0
  -24.3060   14.6340  -16.8550 O   0  0  0  0  0  0  0  0  0  0  0  0
  -21.9100   14.4080  -15.3230 C   0  0  0  0  0  0  0  0  0  0  0  0
  -20.7230   14.6220  -14.4030 C   0  0  0  0  0  0  0  0  0  0  0  0
  -21.0860   14.1990  -12.9870 C   0  0  0  0  0  0  0  0  0  0  0  0
  -19.9930   13.3690  -12.2970 C   0  0  0  0  0  0  0  0  0  0  0  0
  -20.5450   12.2700  -11.3950 N   0  0  0  0  0  0  0  0  0  0  0  0
  -23.1890   15.6610  -18.5140 N   0  0  0  0  0  0  0  0  0  0  0  0
  -24.3050   15.5670  -19.4490 C   0  0  2  0  0  0  0  0  0  0  0  0
  -24.6510   14.1290  -19.8260 C   0  0  0  0  0  0  0  0  0  0  0  0
  -25.7980   13.8710  -20.2200 O   0  0  0  0  0  0  0  0  0  0  0  0
  -23.9870   16.3980  -20.7110 C   0  0  0  0  0  0  0  0  0  0  0  0
  -23.9720   18.2310  -20.3600 S   0  0  0  0  0  0  0  0  0  0  0  0
  -24.4840   11.3200  -17.8600 N   0  0  0  0  0  0  0  0  0  0  0  0
  -24.6060   10.3980  -16.7350 C   0  0  2  0  0  0  0  0  0  0  0  0
  -25.7910    9.4400  -16.8850 C   0  0  0  0  0  0  0  0  0  0  0  0
  -25.6580    8.2380  -16.6370 O   0  0  0  0  0  0  0  0  0  0  0  0
  -24.7120   11.1910  -15.4410 C   0  0  0  0  0  0  0  0  0  0  0  0
  -25.3410   10.3770  -14.4710 O   0  0  0  0  0  0  0  0  0  0  0  0
  -31.8660   16.9650  -22.7250 N   0  0  0  0  0  0  0  0  0  0  0  0
  -30.7050   17.8360  -22.5790 C   0  0  2  0  0  0  0  0  0  0  0  0
  -29.8990   17.4240  -21.3390 C   0  0  0  0  0  0  0  0  0  0  0  0
  -30.1670   16.3990  -20.7000 O   0  0  0  0  0  0  0  0  0  0  0  0
  -31.1450   19.3030  -22.5680 C   0  0  0  0  0  0  0  0  0  0  0  0
  -32.0150   19.6680  -21.3590 C   0  0  0  0  0  0  0  0  0  0  0  0
  -31.9880   19.0100  -20.3070 O   0  0  0  0  0  0  0  0  0  0  0  0
  -32.7800   20.7350  -21.5110 N   0  0  0  0  0  0  0  0  0  0  0  0
  -28.8780   18.2180  -20.9990 N   0  0  0  0  0  0  0  0  0  0  0  0
  -28.0340   17.9240  -19.8420 C   0  0  2  0  0  0  0  0  0  0  0  0
  -28.8190   17.9460  -18.5390 C   0  0  0  0  0  0  0  0  0  0  0  0
  -28.4000   17.3100  -17.5650 O   0  0  0  0  0  0  0  0  0  0  0  0
  -26.8920   18.9370  -19.7350 C   0  0  0  0  0  0  0  0  0  0  0  0
  -25.7310   18.9760  -21.1760 S   0  0  0  0  0  0  0  0  0  0  0  0
  -29.9430   18.6600  -18.4990 N   0  0  0  0  0  0  0  0  0  0  0  0
  -30.7980   18.7210  -17.3180 C   0  0  2  0  0  0  0  0  0  0  0  0
  -31.9370   17.7110  -17.3810 C   0  0  0  0  0  0  0  0  0  0  0  0
  -32.9450   17.8810  -16.6870 O   0  0  0  0  0  0  0  0  0  0  0  0
  -31.3290   20.1520  -17.1370 C   0  0  0  0  0  0  0  0  0  0  0  0
  -30.2350   21.1110  -16.6120 C   0  0  0  0  0  0  0  0  0  0  0  0
  -30.6410   22.5780  -16.5770 C   0  0  0  0  0  0  0  0  0  0  0  0
  -31.5730   23.0100  -17.2730 O   0  0  0  0  0  0  0  0  0  0  0  0
  -29.9280   23.3650  -15.7510 N   0  0  0  0  0  0  0  0  0  0  0  0
  -31.7930   16.6580  -18.1930 N   0  0  0  0  0  0  0  0  0  0  0  0
  -32.7650   15.5750  -18.2580 C   0  0  0  0  0  0  0  0  0  0  0  0
  -34.1230   15.9560  -18.8050 C   0  0  0  0  0  0  0  0  0  0  0  0
  -35.1040   15.2460  -18.5590 O   0  0  0  0  0  0  0  0  0  0  0  0
  -34.2140   17.0600  -19.5430 N   0  0  0  0  0  0  0  0  0  0  0  0
  -35.4800   17.5770  -20.0380 C   0  0  2  0  0  0  0  0  0  0  0  0
  -35.5310   17.4780  -21.5590 C   0  0  0  0  0  0  0  0  0  0  0  0
  -34.5380   17.7450  -22.2380 O   0  0  0  0  0  0  0  0  0  0  0  0
  -35.6640   19.0290  -19.5960 C   0  0  0  0  0  0  0  0  0  0  0  0
  -37.0370   19.5860  -19.8520 C   0  0  0  0  0  0  0  0  0  0  0  0
  -37.5520   20.2940  -18.6220 C   0  0  0  0  0  0  0  0  0  0  0  0
  -37.1870   21.7450  -18.6560 C   0  0  0  0  0  0  0  0  0  0  0  0
  -38.4040   22.5920  -18.6140 N   0  0  0  0  0  0  0  0  0  0  0  0
  2  1  1  6
  3  2  1  0
  4  3  2  0
  5  2  1  0
  6  5  1  0
  7  6  1  0
  8  7  2  0
  9  7  1  0
 10  3  1  0
 11 10  1  0
 12 11  1  0
 13 12  2  0
 11 14  1  1
 15 14  1  0
 16 15  2  0
 17 15  1  0
 19 18  1  6
 20 19  1  0
 21 20  2  0
 22 19  1  0
 23 22  1  0
 22 24  1  6
 25 20  1  0
 26 25  1  0
 27 26  1  0
 28 27  2  0
 26 29  1  6
 30 29  1  0
 31 30  1  0
 32 31  1  0
 33 32  1  0
 34 33  1  0
 35 33  2  0
 36 27  1  0
 37 36  1  0
 38 37  1  0
 39 38  2  0
 37 40  1  6
 41 40  1  0
 42 41  2  0
 43 41  1  0
 44 42  1  0
 45 43  2  0
 46 45  1  0
 46 44  2  0
 47 38  1  0
 48 47  1  0
 49 48  1  0
 50 49  2  0
 48 51  1  1
 52 51  1  0
 53 52  1  0
 54 52  2  0
 55 53  2  0
 56 54  1  0
 56 55  1  0
 58 57  1  0
 59 58  1  0
 60 59  2  0
 58 61  1  1
 62 59  1  0
 63 62  1  0
 64 63  1  0
 65 64  2  0
 63 66  1  6
 67 66  1  0
 68 64  1  0
 69 68  1  0
 70 69  1  0
 71 70  2  0
 69 72  1  1
 73 72  1  0
 74 73  1  0
 75 74  1  0
 76 75  1  0
 77 70  1  0
 78 77  1  0
 79 78  1  0
 80 79  2  0
 78 81  1  6
 82 81  1  0
 84 83  1  6
 85 84  1  0
 86 85  2  0
 87 84  1  0
 88 87  1  0
 90 89  1  1
 91 90  1  0
 92 91  2  0
 93 90  1  0
 94 93  1  0
 95 94  2  0
 96 94  1  0
 97 91  1  0
 98 97  1  0
 99 98  1  0
100 99  2  0
 98101  1  1
102101  1  0
102 82  1  0
103 99  1  0
104103  1  0
105104  1  0
106105  2  0
104107  1  6
108107  1  0
109108  1  0
110109  2  0
111109  1  0
112105  1  0
113112  1  0
114113  1  0
115114  2  0
116114  1  0
117116  1  0
118117  1  0
119118  2  0
117120  1  6
121120  1  0
122121  1  0
123122  1  0
124123  1  0
M  END
$$$$
