
     RDKit          3D

119116  0  0  0  0  0  0  0  0999 V2000
  278.3710  223.0410  586.7190 N   0  0  0  0  0  0  0  0  0  0  0  0
  278.7550  221.8450  585.9620 C   0  0  2  0  0  0  0  0  0  0  0  0
  277.6960  220.7430  586.0320 C   0  0  0  0  0  0  0  0  0  0  0  0
  276.5050  221.0410  585.9430 O   0  0  0  0  0  0  0  0  0  0  0  0
  280.0640  221.4170  586.6370 C   0  0  0  0  0  0  0  0  0  0  0  0
  280.6430  222.6890  587.1540 C   0  0  0  0  0  0  0  0  0  0  0  0
  279.4650  223.5260  587.5800 C   0  0  0  0  0  0  0  0  0  0  0  0
  278.1230  219.4900  586.1720 N   0  0  0  0  0  0  0  0  0  0  0  0
  277.2110  218.3690  586.3320 C   0  0  2  0  0  0  0  0  0  0  0  0
  277.2190  217.8860  587.7760 C   0  0  0  0  0  0  0  0  0  0  0  0
  278.2200  218.0080  588.4860 O   0  0  0  0  0  0  0  0  0  0  0  0
  277.5730  217.2130  585.4010 C   0  0  0  0  0  0  0  0  0  0  0  0
  276.1360  216.6320  584.4940 S   0  0  0  0  0  0  0  0  0  0  0  0
  276.0940  217.3140  588.1900 N   0  0  0  0  0  0  0  0  0  0  0  0
  275.8150  217.0740  589.6010 C   0  0  2  0  0  0  0  0  0  0  0  0
  275.3950  215.6250  589.8410 C   0  0  0  0  0  0  0  0  0  0  0  0
  275.5420  214.7430  588.9870 O   0  0  0  0  0  0  0  0  0  0  0  0
  274.6860  217.9860  590.0710 C   0  0  0  0  0  0  0  0  0  0  0  0
  273.1370  217.0600  589.9850 S   0  0  0  0  0  0  0  0  0  0  0  0
  269.9100  214.0470  594.4580 N   0  0  0  0  0  0  0  0  0  0  0  0
  269.5300  213.5120  595.7550 C   0  0  2  0  0  0  0  0  0  0  0  0
  268.4380  214.3890  596.3520 C   0  0  0  0  0  0  0  0  0  0  0  0
  268.3140  215.5700  596.0180 O   0  0  0  0  0  0  0  0  0  0  0  0
  270.7260  213.4440  596.7160 C   0  0  2  0  0  0  0  0  0  0  0  0
  271.2710  214.7570  596.8980 O   0  0  0  0  0  0  0  0  0  0  0  0
  271.8050  212.5210  596.1690 C   0  0  0  0  0  0  0  0  0  0  0  0
  269.7190  219.2880  585.7310 N   0  0  0  0  0  0  0  0  0  0  0  0
  269.3790  220.6980  585.7980 C   0  0  2  0  0  0  0  0  0  0  0  0
  269.9790  221.3050  587.0600 C   0  0  0  0  0  0  0  0  0  0  0  0
  270.5260  220.6050  587.9160 O   0  0  0  0  0  0  0  0  0  0  0  0
  267.8570  220.9010  585.7760 C   0  0  0  0  0  0  0  0  0  0  0  0
  269.8730  222.6290  587.1680 N   0  0  0  0  0  0  0  0  0  0  0  0
  270.3430  223.3680  588.3350 C   0  0  2  0  0  0  0  0  0  0  0  0
  269.2870  224.3860  588.7350 C   0  0  0  0  0  0  0  0  0  0  0  0
  268.9470  225.2750  587.9480 O   0  0  0  0  0  0  0  0  0  0  0  0
  271.6760  224.0630  588.0450 C   0  0  0  0  0  0  0  0  0  0  0  0
  272.6890  223.1130  587.7620 O   0  0  0  0  0  0  0  0  0  0  0  0
  268.7680  224.2490  589.9520 N   0  0  0  0  0  0  0  0  0  0  0  0
  267.8430  225.2120  590.5350 C   0  0  2  0  0  0  0  0  0  0  0  0
  268.6050  226.0840  591.5230 C   0  0  0  0  0  0  0  0  0  0  0  0
  269.3720  225.5670  592.3410 O   0  0  0  0  0  0  0  0  0  0  0  0
  266.6950  224.5010  591.2540 C   0  0  0  0  0  0  0  0  0  0  0  0
  266.1220  223.2530  590.5890 C   0  0  0  0  0  0  0  0  0  0  0  0
  265.1720  222.5580  591.5370 C   0  0  0  0  0  0  0  0  0  0  0  0
  265.4210  223.6220  589.3120 C   0  0  0  0  0  0  0  0  0  0  0  0
  280.9760  237.1910  599.5920 N   0  0  0  0  0  0  0  0  0  0  0  0
  280.1890  237.9170  598.6050 C   0  0  2  0  0  0  0  0  0  0  0  0
  279.4300  236.9450  597.6970 C   0  0  0  0  0  0  0  0  0  0  0  0
  280.0320  236.1460  596.9830 O   0  0  0  0  0  0  0  0  0  0  0  0
  281.0950  238.8360  597.7810 C   0  0  0  0  0  0  0  0  0  0  0  0
  280.3440  239.5700  596.6890 C   0  0  0  0  0  0  0  0  0  0  0  0
  280.4190  239.2030  595.5180 O   0  0  0  0  0  0  0  0  0  0  0  0
  279.6180  240.6160  597.0680 N   0  0  0  0  0  0  0  0  0  0  0  0
  278.1010  237.0190  597.7510 N   0  0  0  0  0  0  0  0  0  0  0  0
  277.2190  236.1500  596.9770 C   0  0  2  0  0  0  0  0  0  0  0  0
  277.3360  234.6950  597.4270 C   0  0  0  0  0  0  0  0  0  0  0  0
  276.8600  234.3440  598.5130 O   0  0  0  0  0  0  0  0  0  0  0  0
  277.4930  236.2780  595.4690 C   0  0  0  0  0  0  0  0  0  0  0  0
  276.8930  237.5240  594.8200 C   0  0  0  0  0  0  0  0  0  0  0  0
  277.9180  238.6150  594.5560 C   0  0  0  0  0  0  0  0  0  0  0  0
  277.7510  239.7580  594.9850 O   0  0  0  0  0  0  0  0  0  0  0  0
  278.9810  238.2690  593.8360 N   0  0  0  0  0  0  0  0  0  0  0  0
  277.9670  233.8460  596.6100 N   0  0  0  0  0  0  0  0  0  0  0  0
  277.8930  232.3930  596.7610 C   0  0  2  0  0  0  0  0  0  0  0  0
  276.4630  231.8870  596.6070 C   0  0  0  0  0  0  0  0  0  0  0  0
  275.7120  231.8280  597.5860 O   0  0  0  0  0  0  0  0  0  0  0  0
  278.4450  231.9370  598.1150 C   0  0  0  0  0  0  0  0  0  0  0  0
  278.3800  230.4200  598.3460 C   0  0  0  0  0  0  0  0  0  0  0  0
  279.3490  229.6870  597.4320 C   0  0  0  0  0  0  0  0  0  0  0  0
  278.6560  230.0960  599.7940 C   0  0  0  0  0  0  0  0  0  0  0  0
  276.0850  231.4990  595.3920 N   0  0  0  0  0  0  0  0  0  0  0  0
  274.7600  230.9520  595.1320 C   0  0  2  0  0  0  0  0  0  0  0  0
  274.8240  229.4400  595.2970 C   0  0  0  0  0  0  0  0  0  0  0  0
  275.7250  228.7840  594.7620 O   0  0  0  0  0  0  0  0  0  0  0  0
  274.2600  231.3400  593.7280 C   0  0  0  0  0  0  0  0  0  0  0  0
  274.5880  232.8030  593.4160 C   0  0  0  0  0  0  0  0  0  0  0  0
  274.8320  230.4240  592.6510 C   0  0  0  0  0  0  0  0  0  0  0  0
  273.8770  228.8870  596.0460 N   0  0  0  0  0  0  0  0  0  0  0  0
  273.7710  227.4460  596.2380 C   0  0  2  0  0  0  0  0  0  0  0  0
  272.6770  226.9360  595.3130 C   0  0  0  0  0  0  0  0  0  0  0  0
  271.5110  227.3300  595.4400 O   0  0  0  0  0  0  0  0  0  0  0  0
  273.4720  227.0910  597.7030 C   0  0  2  0  0  0  0  0  0  0  0  0
  274.5880  227.6100  598.6130 C   0  0  0  0  0  0  0  0  0  0  0  0
  273.3180  225.5800  597.8550 C   0  0  0  0  0  0  0  0  0  0  0  0
  274.3290  227.4010  600.0950 C   0  0  0  0  0  0  0  0  0  0  0  0
  273.0470  226.0600  594.3860 N   0  0  0  0  0  0  0  0  0  0  0  0
  272.1150  225.5260  593.4050 C   0  0  2  0  0  0  0  0  0  0  0  0
  271.6270  224.1570  593.8540 C   0  0  0  0  0  0  0  0  0  0  0  0
  272.4340  223.2920  594.2120 O   0  0  0  0  0  0  0  0  0  0  0  0
  272.7650  225.4160  592.0250 C   0  0  0  0  0  0  0  0  0  0  0  0
  272.9270  226.6890  591.4310 O   0  0  0  0  0  0  0  0  0  0  0  0
  270.3110  223.9670  593.8400 N   0  0  0  0  0  0  0  0  0  0  0  0
  269.7210  222.6530  594.0370 C   0  0  2  0  0  0  0  0  0  0  0  0
  269.6620  221.9470  592.6900 C   0  0  0  0  0  0  0  0  0  0  0  0
  269.2330  222.5380  591.6930 O   0  0  0  0  0  0  0  0  0  0  0  0
  268.3230  222.7650  594.6480 C   0  0  0  0  0  0  0  0  0  0  0  0
  268.2800  223.5540  595.9530 C   0  0  0  0  0  0  0  0  0  0  0  0
  267.4710  222.8400  597.0370 C   0  0  0  0  0  0  0  0  0  0  0  0
  267.8790  223.2370  598.3830 N   0  0  0  0  0  0  0  0  0  0  0  0
  267.1620  223.0280  599.4840 C   0  0  0  0  0  0  0  0  0  0  0  0
  265.9760  222.4360  599.4170 N   0  0  0  0  0  0  0  0  0  0  0  0
  267.6300  223.4230  600.6600 N   0  0  0  0  0  0  0  0  0  0  0  0
  270.1060  220.6960  592.6570 N   0  0  0  0  0  0  0  0  0  0  0  0
  270.1500  219.9410  591.4150 C   0  0  2  0  0  0  0  0  0  0  0  0
  268.9040  219.0810  591.2540 C   0  0  0  0  0  0  0  0  0  0  0  0
  268.3440  218.5730  592.2290 O   0  0  0  0  0  0  0  0  0  0  0  0
  271.3830  219.0510  591.3640 C   0  0  0  0  0  0  0  0  0  0  0  0
  271.7070  218.4550  589.7080 S   0  0  0  0  0  0  0  0  0  0  0  0
  278.8990  210.7920  601.9070 N   0  0  0  0  0  0  0  0  0  0  0  0
  279.7630  211.2540  602.9940 C   0  0  2  0  0  0  0  0  0  0  0  0
  280.6180  210.1310  603.5790 C   0  0  0  0  0  0  0  0  0  0  0  0
  281.2040  210.2770  604.6530 O   0  0  0  0  0  0  0  0  0  0  0  0
  278.9180  211.8810  604.1050 C   0  0  0  0  0  0  0  0  0  0  0  0
  277.9760  212.9840  603.6410 C   0  0  0  0  0  0  0  0  0  0  0  0
  277.1930  213.5540  604.8120 C   0  0  0  0  0  0  0  0  0  0  0  0
  276.1700  214.5050  604.3870 N   0  0  0  0  0  0  0  0  0  0  0  0
  275.4680  215.2690  605.2190 C   0  0  0  0  0  0  0  0  0  0  0  0
  275.6780  215.2050  606.5260 N   0  0  0  0  0  0  0  0  0  0  0  0
  274.5550  216.1030  604.7420 N   0  0  0  0  0  0  0  0  0  0  0  0
  2  1  1  0
  2  3  1  1
  4  3  2  0
  5  2  1  0
  6  5  1  0
  7  6  1  0
  7  1  1  0
  8  3  1  0
  9  8  1  0
 10  9  1  0
 11 10  2  0
  9 12  1  6
 13 12  1  0
 14 10  1  0
 15 14  1  0
 16 15  1  0
 17 16  2  0
 15 18  1  6
 19 18  1  0
 21 20  1  6
 22 21  1  0
 23 22  2  0
 24 21  1  0
 25 24  1  0
 24 26  1  6
 28 27  1  0
 29 28  1  0
 30 29  2  0
 28 31  1  1
 32 29  1  0
 33 32  1  0
 34 33  1  0
 35 34  2  0
 33 36  1  6
 37 36  1  0
 38 34  1  0
 39 38  1  0
 40 39  1  0
 41 40  2  0
 39 42  1  1
 43 42  1  0
 44 43  1  0
 45 43  1  0
 47 46  1  1
 48 47  1  0
 49 48  2  0
 50 47  1  0
 51 50  1  0
 52 51  2  0
 53 51  1  0
 54 48  1  0
 55 54  1  0
 56 55  1  0
 57 56  2  0
 55 58  1  6
 59 58  1  0
 60 59  1  0
 61 60  2  0
 62 60  1  0
 63 56  1  0
 64 63  1  0
 65 64  1  0
 66 65  2  0
 64 67  1  1
 68 67  1  0
 69 68  1  0
 70 68  1  0
 71 65  1  0
 72 71  1  6
 73 72  1  0
 74 73  2  0
 75 72  1  0
 76 75  1  0
 77 75  1  0
 78 73  1  0
 79 78  1  1
 80 79  1  0
 81 80  2  0
 82 79  1  0
 83 82  1  0
 82 84  1  6
 85 83  1  0
 86 80  1  0
 87 86  1  0
 88 87  1  0
 89 88  2  0
 87 90  1  6
 91 90  1  0
 92 88  1  0
 93 92  1  0
 94 93  1  0
 95 94  2  0
 93 96  1  6
 97 96  1  0
 98 97  1  0
 99 98  1  0
100 99  1  0
101100  1  0
102100  2  0
103 94  1  0
104103  1  0
105104  1  0
106105  2  0
104107  1  1
108107  1  0
108 19  1  0
110109  1  6
111110  1  0
112111  2  0
113110  1  0
114113  1  0
115114  1  0
116115  1  0
117116  1  0
118117  1  0
119117  2  0
M  END
$$$$
