
     RDKit          3D

155152  0  0  0  0  0  0  0  0999 V2000
    9.5890  -11.8730   28.3130 N   0  0  0  0  0  0  0  0  0  0  0  0
    9.4920  -11.0240   29.4930 C   0  0  2  0  0  0  0  0  0  0  0  0
    8.5380  -11.5930   30.5340 C   0  0  0  0  0  0  0  0  0  0  0  0
    8.5990  -11.1860   31.7000 O   0  0  0  0  0  0  0  0  0  0  0  0
    9.0560   -9.6090   29.1000 C   0  0  0  0  0  0  0  0  0  0  0  0
    7.6790   -9.5740   28.4590 C   0  0  0  0  0  0  0  0  0  0  0  0
    6.6570   -9.6570   29.1450 O   0  0  0  0  0  0  0  0  0  0  0  0
    7.6440   -9.4320   27.1390 N   0  0  0  0  0  0  0  0  0  0  0  0
    7.6640  -12.5250   30.1450 N   0  0  0  0  0  0  0  0  0  0  0  0
    6.8030  -13.1890   31.1160 C   0  0  2  0  0  0  0  0  0  0  0  0
    7.5160  -14.3090   31.8620 C   0  0  0  0  0  0  0  0  0  0  0  0
    7.1000  -14.6540   32.9730 O   0  0  0  0  0  0  0  0  0  0  0  0
    5.5530  -13.7420   30.4290 C   0  0  0  0  0  0  0  0  0  0  0  0
    8.5740  -14.8810   31.2870 N   0  0  0  0  0  0  0  0  0  0  0  0
    9.3370  -15.9180   31.9710 C   0  0  2  0  0  0  0  0  0  0  0  0
   10.0780  -15.3170   33.1570 C   0  0  0  0  0  0  0  0  0  0  0  0
   10.9660  -14.4760   32.9820 O   0  0  0  0  0  0  0  0  0  0  0  0
   10.3260  -16.5820   31.0170 C   0  0  0  0  0  0  0  0  0  0  0  0
    9.6930  -17.4610   29.9600 C   0  0  0  0  0  0  0  0  0  0  0  0
    8.8410  -18.5520   30.5680 C   0  0  0  0  0  0  0  0  0  0  0  0
    8.2050  -19.4030   29.4830 C   0  0  0  0  0  0  0  0  0  0  0  0
    7.3700  -20.4930   30.0530 N   0  0  0  0  0  0  0  0  0  0  0  0
    9.7170  -15.7510   34.3650 N   0  0  0  0  0  0  0  0  0  0  0  0
   10.3900  -15.2720   35.5630 C   0  0  2  0  0  0  0  0  0  0  0  0
   11.8230  -15.7860   35.5800 C   0  0  0  0  0  0  0  0  0  0  0  0
   12.0980  -16.9370   35.2100 O   0  0  0  0  0  0  0  0  0  0  0  0
    9.6100  -15.7030   36.8180 C   0  0  0  0  0  0  0  0  0  0  0  0
    9.2360  -17.1760   36.7360 C   0  0  0  0  0  0  0  0  0  0  0  0
   10.4120  -15.4200   38.0800 C   0  0  0  0  0  0  0  0  0  0  0  0
    6.2260   -2.9960   40.0180 N   0  0  0  0  0  0  0  0  0  0  0  0
    5.3070   -1.9900   39.5020 C   0  0  2  0  0  0  0  0  0  0  0  0
    3.8800   -2.1640   40.0020 C   0  0  0  0  0  0  0  0  0  0  0  0
    3.1060   -1.2000   39.9600 O   0  0  0  0  0  0  0  0  0  0  0  0
    5.3160   -2.0100   37.9730 C   0  0  0  0  0  0  0  0  0  0  0  0
    3.5100   -3.3520   40.4630 N   0  0  0  0  0  0  0  0  0  0  0  0
    2.1540   -3.5670   40.9350 C   0  0  0  0  0  0  0  0  0  0  0  0
    1.9850   -4.9790   41.4440 C   0  0  0  0  0  0  0  0  0  0  0  0
    2.9230   -5.7820   41.4510 O   0  0  0  0  0  0  0  0  0  0  0  0
    0.7650   -5.2720   41.8720 N   0  0  0  0  0  0  0  0  0  0  0  0
    0.4090   -6.5720   42.4030 C   0  0  0  0  0  0  0  0  0  0  0  0
   -0.0240   -6.4910   43.8540 C   0  0  0  0  0  0  0  0  0  0  0  0
   -0.0200   -5.4330   44.4810 O   0  0  0  0  0  0  0  0  0  0  0  0
   -0.4110   -7.6490   44.3790 N   0  0  0  0  0  0  0  0  0  0  0  0
   -0.8210   -7.7370   45.7700 C   0  0  2  0  0  0  0  0  0  0  0  0
    0.3890   -7.6030   46.6890 C   0  0  0  0  0  0  0  0  0  0  0  0
    1.5390   -7.7810   46.2770 O   0  0  0  0  0  0  0  0  0  0  0  0
   -1.5430   -9.0570   46.0350 C   0  0  0  0  0  0  0  0  0  0  0  0
   -2.8510   -9.1650   45.2790 C   0  0  0  0  0  0  0  0  0  0  0  0
   -3.4450   -8.1130   44.9590 O   0  0  0  0  0  0  0  0  0  0  0  0
   -3.2900  -10.3020   45.0090 O   0  0  0  0  0  0  0  0  0  0  0  0
    0.1110   -7.2850   47.9580 N   0  0  0  0  0  0  0  0  0  0  0  0
    1.1830   -7.0810   48.9280 C   0  0  2  0  0  0  0  0  0  0  0  0
    2.0590   -8.3160   49.0830 C   0  0  0  0  0  0  0  0  0  0  0  0
    3.2340   -8.1980   49.4490 O   0  0  0  0  0  0  0  0  0  0  0  0
    0.6010   -6.6810   50.2830 C   0  0  0  0  0  0  0  0  0  0  0  0
    0.5700   -5.1830   50.5780 C   0  0  0  0  0  0  0  0  0  0  0  0
   -0.0180   -4.9250   51.9540 C   0  0  0  0  0  0  0  0  0  0  0  0
    1.9680   -4.5970   50.4670 C   0  0  0  0  0  0  0  0  0  0  0  0
    1.5140   -9.5030   48.8090 N   0  0  0  0  0  0  0  0  0  0  0  0
    2.2990  -10.7250   48.9510 C   0  0  2  0  0  0  0  0  0  0  0  0
    3.4930  -10.7480   48.0030 C   0  0  0  0  0  0  0  0  0  0  0  0
    4.5130  -11.3760   48.3120 O   0  0  0  0  0  0  0  0  0  0  0  0
    1.4120  -11.9520   48.7250 C   0  0  0  0  0  0  0  0  0  0  0  0
    0.4770  -12.2800   49.8850 C   0  0  0  0  0  0  0  0  0  0  0  0
   -0.7110  -11.3360   49.9820 C   0  0  0  0  0  0  0  0  0  0  0  0
   -0.9690  -10.5940   49.0090 O   0  0  0  0  0  0  0  0  0  0  0  0
   -1.3880  -11.3370   51.0350 O   0  0  0  0  0  0  0  0  0  0  0  0
    3.3990  -10.0720   46.8570 N   0  0  0  0  0  0  0  0  0  0  0  0
    4.4870  -10.0580   45.8940 C   0  0  2  0  0  0  0  0  0  0  0  0
    5.1860   -8.7040   45.8080 C   0  0  0  0  0  0  0  0  0  0  0  0
    6.3670   -8.6580   45.4420 O   0  0  0  0  0  0  0  0  0  0  0  0
    4.0040  -10.5080   44.4990 C   0  0  2  0  0  0  0  0  0  0  0  0
    2.9500   -9.5430   43.9480 C   0  0  0  0  0  0  0  0  0  0  0  0
    3.4670  -11.9280   44.5610 C   0  0  0  0  0  0  0  0  0  0  0  0
    2.5900   -9.7940   42.5040 C   0  0  0  0  0  0  0  0  0  0  0  0
   -3.4240  -13.7030   51.5840 N   0  0  0  0  0  0  0  0  0  0  0  0
   -3.9430  -14.3040   50.3620 C   0  0  2  0  0  0  0  0  0  0  0  0
   -3.1390  -15.5670   50.0800 C   0  0  0  0  0  0  0  0  0  0  0  0
   -1.9250  -15.4990   49.8620 O   0  0  0  0  0  0  0  0  0  0  0  0
   -3.8660  -13.3270   49.1890 C   0  0  0  0  0  0  0  0  0  0  0  0
   -4.4100  -13.8860   47.8820 C   0  0  0  0  0  0  0  0  0  0  0  0
   -4.5680  -12.8020   46.8250 C   0  0  0  0  0  0  0  0  0  0  0  0
   -5.9280  -12.2690   46.7740 N   0  0  0  0  0  0  0  0  0  0  0  0
   -6.3500  -11.2190   47.4720 C   0  0  0  0  0  0  0  0  0  0  0  0
   -5.5190  -10.5810   48.2850 N   0  0  0  0  0  0  0  0  0  0  0  0
   -7.6060  -10.8050   47.3580 N   0  0  0  0  0  0  0  0  0  0  0  0
   -3.8160  -16.7120   50.0930 N   0  0  0  0  0  0  0  0  0  0  0  0
   -3.1320  -17.9960   50.0610 C   0  0  2  0  0  0  0  0  0  0  0  0
   -2.4240  -18.2270   48.7290 C   0  0  0  0  0  0  0  0  0  0  0  0
   -2.8180  -17.6990   47.6850 O   0  0  0  0  0  0  0  0  0  0  0  0
   -4.1210  -19.1280   50.3220 C   0  0  0  0  0  0  0  0  0  0  0  0
   -4.6960  -19.1270   51.7190 C   0  0  0  0  0  0  0  0  0  0  0  0
   -5.9630  -20.3890   51.9210 S   0  0  0  0  0  0  0  0  0  0  0  0
   -7.2550  -19.7380   50.8710 C   0  0  0  0  0  0  0  0  0  0  0  0
   -1.3630  -19.0340   48.7810 N   0  0  0  0  0  0  0  0  0  0  0  0
   -0.6160  -19.4230   47.5940 C   0  0  2  0  0  0  0  0  0  0  0  0
   -0.9810  -20.8090   47.0850 C   0  0  0  0  0  0  0  0  0  0  0  0
   -0.7840  -21.0830   45.8980 O   0  0  0  0  0  0  0  0  0  0  0  0
    0.8910  -19.3850   47.8760 C   0  0  0  0  0  0  0  0  0  0  0  0
    1.3050  -20.2870   49.0020 C   0  0  0  0  0  0  0  0  0  0  0  0
    1.4120  -19.9540   50.3220 C   0  0  0  0  0  0  0  0  0  0  0  0
    1.6590  -21.6740   48.9080 C   0  0  0  0  0  0  0  0  0  0  0  0
    1.8130  -21.0450   51.0540 N   0  0  0  0  0  0  0  0  0  0  0  0
    1.9700  -22.1140   50.2110 C   0  0  0  0  0  0  0  0  0  0  0  0
    1.7430  -22.5860   47.8500 C   0  0  0  0  0  0  0  0  0  0  0  0
    2.3600  -23.4230   50.4840 C   0  0  0  0  0  0  0  0  0  0  0  0
    2.1300  -23.8880   48.1230 C   0  0  0  0  0  0  0  0  0  0  0  0
    2.4330  -24.2930   49.4310 C   0  0  0  0  0  0  0  0  0  0  0  0
   -1.4900  -21.6890   47.9510 N   0  0  0  0  0  0  0  0  0  0  0  0
   -1.8260  -23.0430   47.5320 C   0  0  2  0  0  0  0  0  0  0  0  0
   -3.1690  -23.1260   46.8230 C   0  0  0  0  0  0  0  0  0  0  0  0
   -3.4300  -24.1180   46.1330 O   0  0  0  0  0  0  0  0  0  0  0  0
   -1.8300  -23.9890   48.7330 C   0  0  0  0  0  0  0  0  0  0  0  0
   -2.7150  -23.5500   49.8830 C   0  0  0  0  0  0  0  0  0  0  0  0
   -1.9880  -22.6500   50.8540 C   0  0  0  0  0  0  0  0  0  0  0  0
   -1.3250  -21.6930   50.4510 O   0  0  0  0  0  0  0  0  0  0  0  0
   -2.0940  -22.9590   52.1430 N   0  0  0  0  0  0  0  0  0  0  0  0
   11.6380  -10.4940   37.3230 N   0  0  0  0  0  0  0  0  0  0  0  0
   11.0650  -10.4020   35.9870 C   0  0  2  0  0  0  0  0  0  0  0  0
   11.6460   -9.1870   35.2840 C   0  0  0  0  0  0  0  0  0  0  0  0
   11.8910   -8.1520   35.9110 O   0  0  0  0  0  0  0  0  0  0  0  0
    9.5330  -10.2910   36.0090 C   0  0  2  0  0  0  0  0  0  0  0  0
    9.1360   -9.2140   36.8680 O   0  0  0  0  0  0  0  0  0  0  0  0
    8.9020  -11.5940   36.4820 C   0  0  0  0  0  0  0  0  0  0  0  0
    9.8930  -10.3890   42.0720 N   0  0  0  0  0  0  0  0  0  0  0  0
    8.5660  -10.9430   41.8510 C   0  0  2  0  0  0  0  0  0  0  0  0
    8.3930  -12.1890   42.7080 C   0  0  0  0  0  0  0  0  0  0  0  0
    9.2800  -12.5740   43.4770 O   0  0  0  0  0  0  0  0  0  0  0  0
    8.3400  -11.2720   40.3720 C   0  0  2  0  0  0  0  0  0  0  0  0
    7.0020  -11.7520   40.1870 O   0  0  0  0  0  0  0  0  0  0  0  0
    9.3210  -12.3390   39.9180 C   0  0  0  0  0  0  0  0  0  0  0  0
    7.2350  -12.8220   42.5670 N   0  0  0  0  0  0  0  0  0  0  0  0
    6.9450  -14.0260   43.3140 C   0  0  0  0  0  0  0  0  0  0  0  0
    5.4990  -14.4310   43.1170 C   0  0  0  0  0  0  0  0  0  0  0  0
    4.7820  -13.8650   42.2900 O   0  0  0  0  0  0  0  0  0  0  0  0
    5.0880  -15.4260   43.8960 N   0  0  0  0  0  0  0  0  0  0  0  0
    3.7240  -15.9090   43.8360 C   0  0  0  0  0  0  0  0  0  0  0  0
    3.6300  -17.3880   43.5340 C   0  0  0  0  0  0  0  0  0  0  0  0
    3.1490  -18.1690   44.3590 O   0  0  0  0  0  0  0  0  0  0  0  0
    4.0810  -17.7850   42.3490 N   0  0  0  0  0  0  0  0  0  0  0  0
    4.0980  -19.1940   41.9810 C   0  0  2  0  0  0  0  0  0  0  0  0
    5.1950  -19.8970   42.7700 C   0  0  0  0  0  0  0  0  0  0  0  0
    6.3850  -19.7240   42.4850 O   0  0  0  0  0  0  0  0  0  0  0  0
    4.3120  -19.3460   40.4790 C   0  0  0  0  0  0  0  0  0  0  0  0
    4.2110  -20.7860   40.0200 C   0  0  0  0  0  0  0  0  0  0  0  0
    3.5920  -21.5950   40.7430 O   0  0  0  0  0  0  0  0  0  0  0  0
    4.7450  -21.1060   38.9370 O   0  0  0  0  0  0  0  0  0  0  0  0
    4.8010  -20.6850   43.7700 N   0  0  0  0  0  0  0  0  0  0  0  0
    5.7850  -21.3620   44.6040 C   0  0  2  0  0  0  0  0  0  0  0  0
    6.4760  -22.5140   43.8890 C   0  0  0  0  0  0  0  0  0  0  0  0
    7.4190  -23.0840   44.4470 O   0  0  0  0  0  0  0  0  0  0  0  0
    5.1280  -21.8630   45.8890 C   0  0  0  0  0  0  0  0  0  0  0  0
    4.6020  -20.7410   46.7600 C   0  0  0  0  0  0  0  0  0  0  0  0
    5.8540  -19.4720   47.0260 S   0  0  0  0  0  0  0  0  0  0  0  0
    4.8270  -18.0900   47.5200 C   0  0  0  0  0  0  0  0  0  0  0  0
  2  1  1  6
  3  2  1  0
  4  3  2  0
  5  2  1  0
  6  5  1  0
  7  6  2  0
  8  6  1  0
  9  3  1  0
 10  9  1  0
 11 10  1  0
 12 11  2  0
 10 13  1  6
 14 11  1  0
 15 14  1  0
 16 15  1  0
 17 16  2  0
 15 18  1  6
 19 18  1  0
 20 19  1  0
 21 20  1  0
 22 21  1  0
 23 16  1  0
 24 23  1  6
 25 24  1  0
 26 25  2  0
 27 24  1  0
 28 27  1  0
 29 27  1  0
 31 30  1  0
 32 31  1  0
 33 32  2  0
 31 34  1  6
 35 32  1  0
 36 35  1  0
 37 36  1  0
 38 37  2  0
 39 37  1  0
 40 39  1  0
 41 40  1  0
 42 41  2  0
 43 41  1  0
 44 43  1  0
 45 44  1  0
 46 45  2  0
 44 47  1  6
 48 47  1  0
 49 48  2  0
 50 48  1  0
 51 45  1  0
 52 51  1  0
 53 52  1  0
 54 53  2  0
 52 55  1  1
 56 55  1  0
 57 56  1  0
 58 56  1  0
 59 53  1  0
 60 59  1  0
 61 60  1  0
 62 61  2  0
 60 63  1  6
 64 63  1  0
 65 64  1  0
 66 65  2  0
 67 65  1  0
 68 61  1  0
 69 68  1  1
 70 69  1  0
 71 70  2  0
 72 69  1  0
 73 72  1  0
 72 74  1  1
 75 73  1  0
 77 76  1  1
 78 77  1  0
 79 78  2  0
 80 77  1  0
 81 80  1  0
 82 81  1  0
 83 82  1  0
 84 83  1  0
 85 84  1  0
 86 84  2  0
 87 78  1  0
 88 87  1  0
 89 88  1  0
 90 89  2  0
 88 91  1  6
 92 91  1  0
 93 92  1  0
 94 93  1  0
 95 89  1  0
 96 95  1  0
 97 96  1  0
 98 97  2  0
 96 99  1  1
100 99  1  0
101100  2  0
102100  1  0
103101  1  0
104102  2  0
104103  1  0
105102  1  0
106104  1  0
107105  2  0
108107  1  0
108106  2  0
109 97  1  0
110109  1  0
111110  1  0
112111  2  0
110113  1  1
114113  1  0
115114  1  0
116115  2  0
117115  1  0
119118  1  1
120119  1  0
121120  2  0
122119  1  0
123122  1  0
122124  1  1
126125  1  6
127126  1  0
128127  2  0
129126  1  0
130129  1  0
129131  1  1
132127  1  0
133132  1  0
134133  1  0
135134  2  0
136134  1  0
137136  1  0
138137  1  0
139138  2  0
140138  1  0
141140  1  0
142141  1  0
143142  2  0
141144  1  6
145144  1  0
146145  2  0
147145  1  0
148142  1  0
149148  1  0
150149  1  0
151150  2  0
149152  1  1
153152  1  0
154153  1  0
155154  1  0
M  END
$$$$
