
     RDKit          3D

166162  0  0  0  0  0  0  0  0999 V2000
  -12.1380   19.9270  -53.1360 N   0  0  0  0  0  0  0  0  0  0  0  0
  -12.2270   20.5510  -51.8260 C   0  0  2  0  0  0  0  0  0  0  0  0
  -13.4430   21.4650  -51.8010 C   0  0  0  0  0  0  0  0  0  0  0  0
  -13.9690   21.8620  -52.8440 O   0  0  0  0  0  0  0  0  0  0  0  0
  -10.9640   21.3580  -51.4730 C   0  0  2  0  0  0  0  0  0  0  0  0
  -10.8770   22.5200  -52.3070 O   0  0  0  0  0  0  0  0  0  0  0  0
   -9.7230   20.5090  -51.6470 C   0  0  0  0  0  0  0  0  0  0  0  0
  -12.4760   20.5810  -34.5460 N   0  0  0  0  0  0  0  0  0  0  0  0
  -11.4420   20.0930  -35.4430 C   0  0  2  0  0  0  0  0  0  0  0  0
  -11.9260   18.9600  -36.3400 C   0  0  0  0  0  0  0  0  0  0  0  0
  -11.1510   18.4700  -37.1670 O   0  0  0  0  0  0  0  0  0  0  0  0
  -10.2260   19.6310  -34.6340 C   0  0  0  0  0  0  0  0  0  0  0  0
  -13.1800   18.5380  -36.2020 N   0  0  0  0  0  0  0  0  0  0  0  0
  -13.7320   17.4420  -36.9840 C   0  0  2  0  0  0  0  0  0  0  0  0
  -14.4630   18.0000  -38.1970 C   0  0  0  0  0  0  0  0  0  0  0  0
  -15.3280   18.8730  -38.0610 O   0  0  0  0  0  0  0  0  0  0  0  0
  -14.6880   16.5980  -36.1420 C   0  0  0  0  0  0  0  0  0  0  0  0
  -14.0260   15.8480  -35.0090 C   0  0  0  0  0  0  0  0  0  0  0  0
  -13.2360   14.6570  -35.5100 C   0  0  0  0  0  0  0  0  0  0  0  0
  -12.6840   13.8490  -34.3470 C   0  0  0  0  0  0  0  0  0  0  0  0
  -12.0230   12.5990  -34.7940 N   0  0  0  0  0  0  0  0  0  0  0  0
  -14.1150   17.4910  -39.3780 N   0  0  0  0  0  0  0  0  0  0  0  0
  -14.7550   17.9420  -40.6030 C   0  0  2  0  0  0  0  0  0  0  0  0
  -16.2430   17.6150  -40.5710 C   0  0  0  0  0  0  0  0  0  0  0  0
  -16.6710   16.6030  -40.0090 O   0  0  0  0  0  0  0  0  0  0  0  0
  -14.1020   17.2860  -41.8210 C   0  0  2  0  0  0  0  0  0  0  0  0
  -12.6770   17.3880  -41.7180 O   0  0  0  0  0  0  0  0  0  0  0  0
  -14.5480   17.9670  -43.0990 C   0  0  0  0  0  0  0  0  0  0  0  0
  -10.6090   31.5030  -43.3800 N   0  0  0  0  0  0  0  0  0  0  0  0
   -9.7870   32.5560  -42.7930 C   0  0  2  0  0  0  0  0  0  0  0  0
   -8.3600   32.5390  -43.3240 C   0  0  0  0  0  0  0  0  0  0  0  0
   -7.7130   33.5910  -43.3790 O   0  0  0  0  0  0  0  0  0  0  0  0
   -9.7670   32.4160  -41.2690 C   0  0  0  0  0  0  0  0  0  0  0  0
  -11.0770   32.4720  -40.7340 O   0  0  0  0  0  0  0  0  0  0  0  0
   -7.8540   31.3730  -43.7060 N   0  0  0  0  0  0  0  0  0  0  0  0
   -6.4910   31.2810  -44.1920 C   0  0  0  0  0  0  0  0  0  0  0  0
   -6.2210   29.8980  -44.7370 C   0  0  0  0  0  0  0  0  0  0  0  0
   -7.0980   29.0310  -44.7620 O   0  0  0  0  0  0  0  0  0  0  0  0
   -4.9870   29.7040  -45.1760 N   0  0  0  0  0  0  0  0  0  0  0  0
   -4.5450   28.4330  -45.7120 C   0  0  0  0  0  0  0  0  0  0  0  0
   -4.2020   28.5410  -47.1870 C   0  0  0  0  0  0  0  0  0  0  0  0
   -4.3050   29.6000  -47.8080 O   0  0  0  0  0  0  0  0  0  0  0  0
   -3.7870   27.4040  -47.7390 N   0  0  0  0  0  0  0  0  0  0  0  0
   -3.3660   27.3490  -49.1290 C   0  0  2  0  0  0  0  0  0  0  0  0
   -4.5460   27.5710  -50.0660 C   0  0  0  0  0  0  0  0  0  0  0  0
   -5.7110   27.4030  -49.7010 O   0  0  0  0  0  0  0  0  0  0  0  0
   -2.7200   26.0040  -49.4480 C   0  0  0  0  0  0  0  0  0  0  0  0
   -1.3970   25.8200  -48.7590 C   0  0  0  0  0  0  0  0  0  0  0  0
   -0.7650   26.8370  -48.4030 O   0  0  0  0  0  0  0  0  0  0  0  0
   -0.9890   24.6540  -48.5830 O   0  0  0  0  0  0  0  0  0  0  0  0
   -4.2170   27.9310  -51.3070 N   0  0  0  0  0  0  0  0  0  0  0  0
   -5.2400   28.2240  -52.3010 C   0  0  2  0  0  0  0  0  0  0  0  0
   -6.1330   27.0210  -52.5830 C   0  0  0  0  0  0  0  0  0  0  0  0
   -7.2610   27.2000  -53.0470 O   0  0  0  0  0  0  0  0  0  0  0  0
   -4.5720   28.7150  -53.5900 C   0  0  0  0  0  0  0  0  0  0  0  0
   -4.9430   30.1150  -54.0870 C   0  0  0  0  0  0  0  0  0  0  0  0
   -4.7220   31.1800  -53.0350 C   0  0  0  0  0  0  0  0  0  0  0  0
   -4.1370   30.4570  -55.3250 C   0  0  0  0  0  0  0  0  0  0  0  0
   -5.6670   25.8060  -52.2930 N   0  0  0  0  0  0  0  0  0  0  0  0
   -6.4420   24.5980  -52.5480 C   0  0  2  0  0  0  0  0  0  0  0  0
   -7.6130   24.4160  -51.5910 C   0  0  0  0  0  0  0  0  0  0  0  0
   -8.4620   23.5550  -51.8490 O   0  0  0  0  0  0  0  0  0  0  0  0
   -5.5420   23.3630  -52.4530 C   0  0  0  0  0  0  0  0  0  0  0  0
   -4.5060   23.2240  -53.5660 C   0  0  0  0  0  0  0  0  0  0  0  0
   -3.3470   24.1960  -53.4280 C   0  0  0  0  0  0  0  0  0  0  0  0
   -3.3230   24.9620  -52.4430 O   0  0  0  0  0  0  0  0  0  0  0  0
   -2.4630   24.1980  -54.3110 O   0  0  0  0  0  0  0  0  0  0  0  0
   -7.6690   25.1710  -50.4920 N   0  0  0  0  0  0  0  0  0  0  0  0
   -8.7540   25.0530  -49.5210 C   0  0  2  0  0  0  0  0  0  0  0  0
   -9.4580   26.3930  -49.3520 C   0  0  0  0  0  0  0  0  0  0  0  0
  -10.6420   26.4370  -49.0030 O   0  0  0  0  0  0  0  0  0  0  0  0
   -8.2480   24.5340  -48.1600 C   0  0  2  0  0  0  0  0  0  0  0  0
   -7.1520   25.4460  -47.5980 C   0  0  0  0  0  0  0  0  0  0  0  0
   -7.7470   23.1010  -48.2950 C   0  0  0  0  0  0  0  0  0  0  0  0
   -6.7490   25.1180  -46.1710 C   0  0  0  0  0  0  0  0  0  0  0  0
  -11.1830   23.6760  -55.2540 N   0  0  0  0  0  0  0  0  0  0  0  0
  -10.1020   23.0910  -56.0310 C   0  0  2  0  0  0  0  0  0  0  0  0
  -10.5640   21.7570  -56.5970 C   0  0  0  0  0  0  0  0  0  0  0  0
  -11.1090   20.9280  -55.8630 O   0  0  0  0  0  0  0  0  0  0  0  0
   -8.8590   22.9110  -55.1540 C   0  0  0  0  0  0  0  0  0  0  0  0
   -7.7110   22.2460  -55.8460 C   0  0  0  0  0  0  0  0  0  0  0  0
   -7.1160   22.7670  -56.9740 N   0  0  0  0  0  0  0  0  0  0  0  0
   -7.0400   21.1060  -55.5590 C   0  0  0  0  0  0  0  0  0  0  0  0
   -6.1330   21.9730  -57.3570 C   0  0  0  0  0  0  0  0  0  0  0  0
   -6.0660   20.9570  -56.5160 N   0  0  0  0  0  0  0  0  0  0  0  0
   -0.2050   22.7360  -54.9250 N   0  0  0  0  0  0  0  0  0  0  0  0
    0.2300   22.0070  -53.7390 C   0  0  2  0  0  0  0  0  0  0  0  0
   -0.4670   20.6520  -53.7430 C   0  0  0  0  0  0  0  0  0  0  0  0
   -1.6900   20.5740  -53.6000 O   0  0  0  0  0  0  0  0  0  0  0  0
   -0.0870   22.7910  -52.4670 C   0  0  0  0  0  0  0  0  0  0  0  0
    0.6200   24.1340  -52.4170 C   0  0  0  0  0  0  0  0  0  0  0  0
    1.8320   24.2030  -52.2090 O   0  0  0  0  0  0  0  0  0  0  0  0
   -0.1380   25.2100  -52.5980 N   0  0  0  0  0  0  0  0  0  0  0  0
    0.3110   19.5860  -53.9070 N   0  0  0  0  0  0  0  0  0  0  0  0
   -0.2590   18.2560  -54.0680 C   0  0  2  0  0  0  0  0  0  0  0  0
   -1.0120   17.8250  -52.8160 C   0  0  0  0  0  0  0  0  0  0  0  0
   -0.5250   17.9840  -51.6930 O   0  0  0  0  0  0  0  0  0  0  0  0
    0.8450   17.2500  -54.3860 C   0  0  0  0  0  0  0  0  0  0  0  0
    1.4690   17.4230  -55.7590 C   0  0  0  0  0  0  0  0  0  0  0  0
    2.6150   16.0950  -56.1720 S   0  0  0  0  0  0  0  0  0  0  0  0
    3.8040   16.2200  -54.8380 C   0  0  0  0  0  0  0  0  0  0  0  0
   -2.2060   17.2690  -53.0210 N   0  0  0  0  0  0  0  0  0  0  0  0
   -2.9860   16.6920  -51.9350 C   0  0  2  0  0  0  0  0  0  0  0  0
   -2.4830   15.3160  -51.5250 C   0  0  0  0  0  0  0  0  0  0  0  0
   -2.7800   14.8710  -50.4110 O   0  0  0  0  0  0  0  0  0  0  0  0
   -4.4570   16.5820  -52.3500 C   0  0  0  0  0  0  0  0  0  0  0  0
   -4.6600   15.6490  -53.5050 C   0  0  0  0  0  0  0  0  0  0  0  0
   -4.6560   15.9740  -54.8290 C   0  0  0  0  0  0  0  0  0  0  0  0
   -4.8750   14.2320  -53.4400 C   0  0  0  0  0  0  0  0  0  0  0  0
   -4.8610   14.8510  -55.5930 N   0  0  0  0  0  0  0  0  0  0  0  0
   -4.9970   13.7680  -54.7640 C   0  0  0  0  0  0  0  0  0  0  0  0
   -4.9780   13.3130  -52.3910 C   0  0  0  0  0  0  0  0  0  0  0  0
   -5.2180   12.4280  -55.0680 C   0  0  0  0  0  0  0  0  0  0  0  0
   -5.2010   11.9810  -52.6940 C   0  0  0  0  0  0  0  0  0  0  0  0
   -5.3190   11.5520  -54.0220 C   0  0  0  0  0  0  0  0  0  0  0  0
   -1.7380   14.6310  -52.3980 N   0  0  0  0  0  0  0  0  0  0  0  0
   -1.3010   13.2700  -52.0970 C   0  0  2  0  0  0  0  0  0  0  0  0
   -0.3510   13.2440  -50.9100 C   0  0  0  0  0  0  0  0  0  0  0  0
   -0.3690   12.3010  -50.1110 O   0  0  0  0  0  0  0  0  0  0  0  0
   -0.6200   12.6440  -53.3140 C   0  0  0  0  0  0  0  0  0  0  0  0
   -1.4690   12.5960  -54.5610 C   0  0  0  0  0  0  0  0  0  0  0  0
   -1.3150   13.8300  -55.4120 C   0  0  0  0  0  0  0  0  0  0  0  0
   -1.4780   14.9520  -54.9370 O   0  0  0  0  0  0  0  0  0  0  0  0
   -0.9880   13.6330  -56.6810 N   0  0  0  0  0  0  0  0  0  0  0  0
    0.4980   14.2560  -50.7860 N   0  0  0  0  0  0  0  0  0  0  0  0
    1.4520   14.2770  -49.7010 C   0  0  0  0  0  0  0  0  0  0  0  0
    2.0970   15.6290  -49.5080 C   0  0  0  0  0  0  0  0  0  0  0  0
    1.4820   16.5510  -48.9670 O   0  0  0  0  0  0  0  0  0  0  0  0
    3.3370   15.7590  -49.9620 N   0  0  0  0  0  0  0  0  0  0  0  0
    4.1290   16.9570  -49.7410 C   0  0  2  0  0  0  0  0  0  0  0  0
    4.6730   17.4490  -51.0730 C   0  0  0  0  0  0  0  0  0  0  0  0
    4.8560   16.6730  -52.0150 O   0  0  0  0  0  0  0  0  0  0  0  0
    5.2760   16.6820  -48.7350 C   0  0  2  0  0  0  0  0  0  0  0  0
    4.7380   16.6260  -47.4050 O   0  0  0  0  0  0  0  0  0  0  0  0
    6.3670   17.7550  -48.7870 C   0  0  0  0  0  0  0  0  0  0  0  0
  -16.0990   23.4780  -41.8660 N   0  0  0  0  0  0  0  0  0  0  0  0
  -15.3750   23.5430  -40.6050 C   0  0  2  0  0  0  0  0  0  0  0  0
  -16.0740   24.5780  -39.7350 C   0  0  0  0  0  0  0  0  0  0  0  0
  -16.2710   25.7200  -40.1630 O   0  0  0  0  0  0  0  0  0  0  0  0
  -13.9030   23.9090  -40.8240 C   0  0  2  0  0  0  0  0  0  0  0  0
  -13.2710   22.9030  -41.6240 O   0  0  0  0  0  0  0  0  0  0  0  0
  -13.1600   24.0150  -39.5000 C   0  0  0  0  0  0  0  0  0  0  0  0
  -12.3440   21.1120  -46.2030 N   0  0  0  0  0  0  0  0  0  0  0  0
  -11.7650   20.1590  -47.1200 C   0  0  0  0  0  0  0  0  0  0  0  0
  -10.2550   20.0970  -47.0060 C   0  0  0  0  0  0  0  0  0  0  0  0
   -9.6450   20.5930  -46.0560 O   0  0  0  0  0  0  0  0  0  0  0  0
   -9.6450   19.4760  -48.0100 N   0  0  0  0  0  0  0  0  0  0  0  0
   -8.2110   19.2710  -48.0170 C   0  0  0  0  0  0  0  0  0  0  0  0
   -7.8480   17.8320  -47.7230 C   0  0  0  0  0  0  0  0  0  0  0  0
   -7.0620   17.2190  -48.4510 O   0  0  0  0  0  0  0  0  0  0  0  0
   -8.4130   17.2810  -46.6540 N   0  0  0  0  0  0  0  0  0  0  0  0
   -8.2200   15.8720  -46.3310 C   0  0  2  0  0  0  0  0  0  0  0  0
   -9.0890   15.0550  -47.2720 C   0  0  0  0  0  0  0  0  0  0  0  0
  -10.2800   14.8490  -47.0240 O   0  0  0  0  0  0  0  0  0  0  0  0
   -8.5680   15.6010  -44.8730 C   0  0  0  0  0  0  0  0  0  0  0  0
   -8.1000   14.2380  -44.4070 C   0  0  0  0  0  0  0  0  0  0  0  0
   -7.9680   13.3080  -45.2020 O   0  0  0  0  0  0  0  0  0  0  0  0
   -7.8360   14.1150  -43.1130 N   0  0  0  0  0  0  0  0  0  0  0  0
   -8.4910   14.5880  -48.3680 N   0  0  0  0  0  0  0  0  0  0  0  0
   -9.2570   13.9130  -49.4030 C   0  0  2  0  0  0  0  0  0  0  0  0
   -9.8640   12.6180  -48.8910 C   0  0  0  0  0  0  0  0  0  0  0  0
  -10.8190   12.1090  -49.4840 O   0  0  0  0  0  0  0  0  0  0  0  0
   -8.3660   13.6710  -50.6380 C   0  0  2  0  0  0  0  0  0  0  0  0
   -7.7480   14.9930  -51.1090 C   0  0  0  0  0  0  0  0  0  0  0  0
   -9.1570   13.0330  -51.7680 C   0  0  0  0  0  0  0  0  0  0  0  0
   -8.7520   16.1000  -51.4150 C   0  0  0  0  0  0  0  0  0  0  0  0
  2  1  1  6
  3  2  1  0
  4  3  2  0
  5  2  1  0
  6  5  1  0
  5  7  1  6
  9  8  1  0
 10  9  1  0
 11 10  2  0
  9 12  1  1
 13 10  1  0
 14 13  1  0
 15 14  1  0
 16 15  2  0
 14 17  1  1
 18 17  1  0
 19 18  1  0
 20 19  1  0
 21 20  1  0
 22 15  1  0
 23 22  1  1
 24 23  1  0
 25 24  2  0
 26 23  1  0
 27 26  1  0
 26 28  1  6
 30 29  1  6
 31 30  1  0
 32 31  2  0
 33 30  1  0
 34 33  1  0
 35 31  1  0
 36 35  1  0
 37 36  1  0
 38 37  2  0
 39 37  1  0
 40 39  1  0
 41 40  1  0
 42 41  2  0
 43 41  1  0
 44 43  1  0
 45 44  1  0
 46 45  2  0
 44 47  1  6
 48 47  1  0
 49 48  2  0
 50 48  1  0
 51 45  1  0
 52 51  1  0
 53 52  1  0
 54 53  2  0
 52 55  1  6
 56 55  1  0
 57 56  1  0
 58 56  1  0
 59 53  1  0
 60 59  1  0
 61 60  1  0
 62 61  2  0
 60 63  1  1
 64 63  1  0
 65 64  1  0
 66 65  2  0
 67 65  1  0
 68 61  1  0
 69 68  1  6
 70 69  1  0
 71 70  2  0
 72 69  1  0
 73 72  1  0
 72 74  1  6
 75 73  1  0
 77 76  1  1
 78 77  1  0
 79 78  2  0
 80 77  1  0
 81 80  1  0
 82 81  1  0
 83 81  2  0
 84 82  2  0
 85 83  1  0
 85 84  1  0
 87 86  1  6
 88 87  1  0
 89 88  2  0
 90 87  1  0
 91 90  1  0
 92 91  2  0
 93 91  1  0
 94 88  1  0
 95 94  1  0
 96 95  1  0
 97 96  2  0
 95 98  1  1
 99 98  1  0
100 99  1  0
101100  1  0
102 96  1  0
103102  1  0
104103  1  0
105104  2  0
103106  1  6
107106  1  0
108107  2  0
109107  1  0
110108  1  0
111110  1  0
111109  2  0
112109  1  0
113111  1  0
114112  2  0
115113  2  0
115114  1  0
116104  1  0
117116  1  0
118117  1  0
119118  2  0
117120  1  6
121120  1  0
122121  1  0
123122  2  0
124122  1  0
125118  1  0
126125  1  0
127126  1  0
128127  2  0
129127  1  0
130129  1  6
131130  1  0
132131  2  0
133130  1  0
134133  1  0
133135  1  1
137136  1  6
138137  1  0
139138  2  0
140137  1  0
141140  1  0
140142  1  1
144143  1  0
145144  1  0
146145  2  0
147145  1  0
148147  1  0
149148  1  0
150149  2  0
151149  1  0
152151  1  0
153152  1  0
154153  2  0
152155  1  1
156155  1  0
157156  2  0
158156  1  0
159153  1  0
160159  1  1
161160  1  0
162161  2  0
163160  1  0
164163  1  0
163165  1  6
166164  1  0
M  END
$$$$
