
     RDKit          3D

157153  0  0  0  0  0  0  0  0999 V2000
   -3.8600   28.4840   -7.3280 N   0  0  0  0  0  0  0  0  0  0  0  0
   -4.4320   28.5110   -8.6640 C   0  0  2  0  0  0  0  0  0  0  0  0
   -5.2980   29.7530   -8.8250 C   0  0  0  0  0  0  0  0  0  0  0  0
   -5.7590   30.3490   -7.8470 O   0  0  0  0  0  0  0  0  0  0  0  0
   -5.2770   27.2600   -8.9500 C   0  0  2  0  0  0  0  0  0  0  0  0
   -6.3820   27.2010   -8.0350 O   0  0  0  0  0  0  0  0  0  0  0  0
   -4.4330   26.0040   -8.8190 C   0  0  0  0  0  0  0  0  0  0  0  0
   -3.8840   29.3640  -28.0240 N   0  0  0  0  0  0  0  0  0  0  0  0
   -4.8710   29.3380  -26.9490 C   0  0  2  0  0  0  0  0  0  0  0  0
   -4.5800   28.2780  -25.8940 C   0  0  0  0  0  0  0  0  0  0  0  0
   -5.3430   28.1770  -24.9280 O   0  0  0  0  0  0  0  0  0  0  0  0
   -6.2730   29.1160  -27.5230 C   0  0  0  0  0  0  0  0  0  0  0  0
   -6.4400   27.7470  -28.1620 C   0  0  0  0  0  0  0  0  0  0  0  0
   -6.0050   26.7280  -27.6210 O   0  0  0  0  0  0  0  0  0  0  0  0
   -7.0710   27.7200  -29.3300 N   0  0  0  0  0  0  0  0  0  0  0  0
   -3.5280   27.4780  -26.0580 N   0  0  0  0  0  0  0  0  0  0  0  0
   -3.1270   26.5140  -25.0420 C   0  0  2  0  0  0  0  0  0  0  0  0
   -2.0500   27.0540  -24.1100 C   0  0  0  0  0  0  0  0  0  0  0  0
   -1.6020   26.3240  -23.2190 O   0  0  0  0  0  0  0  0  0  0  0  0
   -2.6330   25.2230  -25.7010 C   0  0  0  0  0  0  0  0  0  0  0  0
   -1.6260   28.3010  -24.2910 N   0  0  0  0  0  0  0  0  0  0  0  0
   -0.6600   28.9330  -23.4070 C   0  0  2  0  0  0  0  0  0  0  0  0
   -1.3790   29.7280  -22.3250 C   0  0  0  0  0  0  0  0  0  0  0  0
   -2.5180   30.1700  -22.4930 O   0  0  0  0  0  0  0  0  0  0  0  0
    0.2750   29.8550  -24.1920 C   0  0  0  0  0  0  0  0  0  0  0  0
    1.1660   29.1530  -25.2040 C   0  0  0  0  0  0  0  0  0  0  0  0
    2.3150   28.4110  -24.5370 C   0  0  0  0  0  0  0  0  0  0  0  0
    3.2710   27.8380  -25.5740 C   0  0  0  0  0  0  0  0  0  0  0  0
    4.3890   27.0810  -24.9480 N   0  0  0  0  0  0  0  0  0  0  0  0
   -0.6940   29.9160  -21.2150 N   0  0  0  0  0  0  0  0  0  0  0  0
   -1.2520   30.6120  -20.0640 C   0  0  2  0  0  0  0  0  0  0  0  0
   -0.9000   32.0900  -20.1560 C   0  0  0  0  0  0  0  0  0  0  0  0
    0.1140   32.4770  -20.7450 O   0  0  0  0  0  0  0  0  0  0  0  0
   -0.7350   29.9830  -18.7540 C   0  0  2  0  0  0  0  0  0  0  0  0
   -1.5250   30.5080  -17.5550 C   0  0  0  0  0  0  0  0  0  0  0  0
    0.7530   30.2540  -18.5860 C   0  0  0  0  0  0  0  0  0  0  0  0
   -1.2060   29.7940  -16.2600 C   0  0  0  0  0  0  0  0  0  0  0  0
  -14.1890   26.5980  -17.3410 N   0  0  0  0  0  0  0  0  0  0  0  0
  -15.0640   25.7350  -18.1220 C   0  0  2  0  0  0  0  0  0  0  0  0
  -15.0360   24.2850  -17.6660 C   0  0  0  0  0  0  0  0  0  0  0  0
  -15.8730   23.4970  -18.1190 O   0  0  0  0  0  0  0  0  0  0  0  0
  -14.6920   25.7960  -19.6090 C   0  0  0  0  0  0  0  0  0  0  0  0
  -15.1740   26.9830  -20.2160 O   0  0  0  0  0  0  0  0  0  0  0  0
  -14.1070   23.9090  -16.8030 N   0  0  0  0  0  0  0  0  0  0  0  0
  -14.0730   22.5530  -16.3010 C   0  0  0  0  0  0  0  0  0  0  0  0
  -12.7040   22.1890  -15.7730 C   0  0  0  0  0  0  0  0  0  0  0  0
  -11.7580   22.9750  -15.8190 O   0  0  0  0  0  0  0  0  0  0  0  0
  -12.6230   20.9640  -15.2770 N   0  0  0  0  0  0  0  0  0  0  0  0
  -11.4180   20.4310  -14.6820 C   0  0  0  0  0  0  0  0  0  0  0  0
  -11.6390   20.0510  -13.2310 C   0  0  0  0  0  0  0  0  0  0  0  0
  -12.7150   20.2360  -12.6640 O   0  0  0  0  0  0  0  0  0  0  0  0
  -10.5830   19.5010  -12.6360 N   0  0  0  0  0  0  0  0  0  0  0  0
  -10.6330   19.1350  -11.2310 C   0  0  2  0  0  0  0  0  0  0  0  0
  -10.8950   20.3680  -10.3720 C   0  0  0  0  0  0  0  0  0  0  0  0
  -10.7110   21.5100  -10.8000 O   0  0  0  0  0  0  0  0  0  0  0  0
   -9.3290   18.4680  -10.8010 C   0  0  0  0  0  0  0  0  0  0  0  0
   -9.0790   17.1620  -11.5230 C   0  0  0  0  0  0  0  0  0  0  0  0
  -10.0560   16.5440  -12.0000 O   0  0  0  0  0  0  0  0  0  0  0  0
   -7.9030   16.7530  -11.6120 O   0  0  0  0  0  0  0  0  0  0  0  0
  -11.3280   20.1200   -9.1350 N   0  0  0  0  0  0  0  0  0  0  0  0
  -11.6790   21.2120   -8.2360 C   0  0  2  0  0  0  0  0  0  0  0  0
  -10.4760   22.0780   -7.8840 C   0  0  0  0  0  0  0  0  0  0  0  0
  -10.6550   23.2250   -7.4630 O   0  0  0  0  0  0  0  0  0  0  0  0
  -12.3170   20.6480   -6.9630 C   0  0  0  0  0  0  0  0  0  0  0  0
  -13.2480   21.5860   -6.1930 C   0  0  0  0  0  0  0  0  0  0  0  0
  -14.4910   21.9300   -7.0050 C   0  0  0  0  0  0  0  0  0  0  0  0
  -13.6410   20.9600   -4.8650 C   0  0  0  0  0  0  0  0  0  0  0  0
   -9.2570   21.5630   -8.0580 N   0  0  0  0  0  0  0  0  0  0  0  0
   -8.0700   22.3550   -7.7540 C   0  0  2  0  0  0  0  0  0  0  0  0
   -7.9660   23.5830   -8.6540 C   0  0  0  0  0  0  0  0  0  0  0  0
   -7.5040   24.6420   -8.2130 O   0  0  0  0  0  0  0  0  0  0  0  0
   -6.8160   21.4920   -7.8900 C   0  0  0  0  0  0  0  0  0  0  0  0
   -6.5600   20.5680   -6.7040 C   0  0  0  0  0  0  0  0  0  0  0  0
   -7.5370   19.4080   -6.6330 C   0  0  0  0  0  0  0  0  0  0  0  0
   -8.2480   19.1600   -7.6300 O   0  0  0  0  0  0  0  0  0  0  0  0
   -7.5920   18.7450   -5.5750 O   0  0  0  0  0  0  0  0  0  0  0  0
   -8.3890   23.4680   -9.9160 N   0  0  0  0  0  0  0  0  0  0  0  0
   -8.2360   24.5690  -10.8630 C   0  0  2  0  0  0  0  0  0  0  0  0
   -9.5450   25.2970  -11.1660 C   0  0  0  0  0  0  0  0  0  0  0  0
   -9.5020   26.4410  -11.6400 O   0  0  0  0  0  0  0  0  0  0  0  0
   -7.5930   24.0880  -12.1830 C   0  0  2  0  0  0  0  0  0  0  0  0
   -8.4610   23.0310  -12.8730 C   0  0  0  0  0  0  0  0  0  0  0  0
   -6.1980   23.5500  -11.9180 C   0  0  0  0  0  0  0  0  0  0  0  0
   -8.0450   22.7450  -14.3040 C   0  0  0  0  0  0  0  0  0  0  0  0
   -5.9020   16.5050   -5.0310 N   0  0  0  0  0  0  0  0  0  0  0  0
   -5.1040   16.0830   -6.1720 C   0  0  2  0  0  0  0  0  0  0  0  0
   -3.7870   16.8490   -6.1330 C   0  0  0  0  0  0  0  0  0  0  0  0
   -3.7790   18.0840   -6.1810 O   0  0  0  0  0  0  0  0  0  0  0  0
   -5.8610   16.3250   -7.4760 C   0  0  0  0  0  0  0  0  0  0  0  0
   -7.1150   15.4680   -7.5890 C   0  0  0  0  0  0  0  0  0  0  0  0
   -7.9910   15.8710   -8.7590 C   0  0  0  0  0  0  0  0  0  0  0  0
   -9.1370   14.9750   -8.9010 N   0  0  0  0  0  0  0  0  0  0  0  0
   -9.1810   13.9420   -9.7380 C   0  0  0  0  0  0  0  0  0  0  0  0
   -8.1440   13.6730  -10.5180 N   0  0  0  0  0  0  0  0  0  0  0  0
  -10.2620   13.1790   -9.8010 N   0  0  0  0  0  0  0  0  0  0  0  0
   -2.6830   16.1170   -6.0190 N   0  0  0  0  0  0  0  0  0  0  0  0
   -1.3930   16.7410   -5.7570 C   0  0  2  0  0  0  0  0  0  0  0  0
   -0.8900   17.4740   -6.9940 C   0  0  0  0  0  0  0  0  0  0  0  0
   -0.9230   16.9400   -8.1070 O   0  0  0  0  0  0  0  0  0  0  0  0
   -0.3780   15.6860   -5.3190 C   0  0  0  0  0  0  0  0  0  0  0  0
   -0.8220   14.8700   -4.1110 C   0  0  0  0  0  0  0  0  0  0  0  0
    0.4580   13.7720   -3.4740 S   0  0  0  0  0  0  0  0  0  0  0  0
    0.8790   12.8160   -4.9300 C   0  0  0  0  0  0  0  0  0  0  0  0
   -0.4180   18.7060   -6.7900 N   0  0  0  0  0  0  0  0  0  0  0  0
    0.1670   19.4830   -7.8760 C   0  0  2  0  0  0  0  0  0  0  0  0
    1.6030   19.0720   -8.1650 C   0  0  0  0  0  0  0  0  0  0  0  0
    2.0700   19.2280   -9.2980 O   0  0  0  0  0  0  0  0  0  0  0  0
    0.1300   20.9730   -7.5340 C   0  0  0  0  0  0  0  0  0  0  0  0
    0.9900   21.3230   -6.3530 C   0  0  0  0  0  0  0  0  0  0  0  0
    0.5950   21.4140   -5.0510 C   0  0  0  0  0  0  0  0  0  0  0  0
    2.3930   21.6190   -6.3670 C   0  0  0  0  0  0  0  0  0  0  0  0
    1.6620   21.7510   -4.2540 N   0  0  0  0  0  0  0  0  0  0  0  0
    2.7780   21.8820   -5.0370 C   0  0  0  0  0  0  0  0  0  0  0  0
    3.3610   21.6870   -7.3750 C   0  0  0  0  0  0  0  0  0  0  0  0
    4.0860   22.2090   -4.6880 C   0  0  0  0  0  0  0  0  0  0  0  0
    4.6610   22.0120   -7.0260 C   0  0  0  0  0  0  0  0  0  0  0  0
    5.0110   22.2700   -5.6930 C   0  0  0  0  0  0  0  0  0  0  0  0
    2.3190   18.5680   -7.1590 N   0  0  0  0  0  0  0  0  0  0  0  0
    3.7380   18.2720   -7.2970 C   0  0  2  0  0  0  0  0  0  0  0  0
    4.0010   16.9130   -7.9280 C   0  0  0  0  0  0  0  0  0  0  0  0
    5.1610   16.5980   -8.2170 O   0  0  0  0  0  0  0  0  0  0  0  0
    4.4300   18.3440   -5.9290 C   0  0  0  0  0  0  0  0  0  0  0  0
    3.9620   17.3160   -4.8990 C   0  0  0  0  0  0  0  0  0  0  0  0
    2.7890   17.7990   -4.0780 C   0  0  0  0  0  0  0  0  0  0  0  0
    1.8810   18.4480   -4.5930 O   0  0  0  0  0  0  0  0  0  0  0  0
    2.8030   17.4870   -2.7880 N   0  0  0  0  0  0  0  0  0  0  0  0
   -6.7120   31.9610  -19.1220 N   0  0  0  0  0  0  0  0  0  0  0  0
   -6.6950   31.2550  -20.3920 C   0  0  2  0  0  0  0  0  0  0  0  0
   -7.7040   31.9120  -21.3250 C   0  0  0  0  0  0  0  0  0  0  0  0
   -8.7480   32.4020  -20.8850 O   0  0  0  0  0  0  0  0  0  0  0  0
   -7.0320   29.7640  -20.2190 C   0  0  2  0  0  0  0  0  0  0  0  0
   -8.3750   29.6220  -19.7360 O   0  0  0  0  0  0  0  0  0  0  0  0
   -6.0720   29.1030  -19.2360 C   0  0  0  0  0  0  0  0  0  0  0  0
   -4.7410   27.7020  -14.1460 N   0  0  0  0  0  0  0  0  0  0  0  0
   -3.6160   27.3680  -13.3070 C   0  0  0  0  0  0  0  0  0  0  0  0
   -3.4610   25.8720  -13.2000 C   0  0  0  0  0  0  0  0  0  0  0  0
   -4.0510   25.1020  -13.9640 O   0  0  0  0  0  0  0  0  0  0  0  0
   -2.6530   25.4500  -12.2320 N   0  0  0  0  0  0  0  0  0  0  0  0
   -2.3870   24.0410  -12.0220 C   0  0  0  0  0  0  0  0  0  0  0  0
   -0.9180   23.7140  -12.1770 C   0  0  0  0  0  0  0  0  0  0  0  0
   -0.3530   22.9490  -11.3880 O   0  0  0  0  0  0  0  0  0  0  0  0
   -0.2930   24.2910  -13.2020 N   0  0  0  0  0  0  0  0  0  0  0  0
    1.1440   24.1570  -13.4290 C   0  0  2  0  0  0  0  0  0  0  0  0
    1.8360   25.2270  -12.5940 C   0  0  0  0  0  0  0  0  0  0  0  0
    1.9040   26.3930  -12.9890 O   0  0  0  0  0  0  0  0  0  0  0  0
    1.4750   24.2980  -14.9100 C   0  0  0  0  0  0  0  0  0  0  0  0
    2.9290   23.9950  -15.2150 C   0  0  0  0  0  0  0  0  0  0  0  0
    3.7380   23.9220  -14.2670 O   0  0  0  0  0  0  0  0  0  0  0  0
    3.2650   23.8300  -16.4080 O   0  0  0  0  0  0  0  0  0  0  0  0
    2.3520   24.8320  -11.4310 N   0  0  0  0  0  0  0  0  0  0  0  0
    2.9550   25.7970  -10.5220 C   0  0  2  0  0  0  0  0  0  0  0  0
    4.2140   26.4360  -11.0890 C   0  0  0  0  0  0  0  0  0  0  0  0
    4.6780   27.4390  -10.5370 O   0  0  0  0  0  0  0  0  0  0  0  0
    3.2660   25.1240   -9.1840 C   0  0  0  0  0  0  0  0  0  0  0  0
    2.0280   24.5980   -8.4790 C   0  0  0  0  0  0  0  0  0  0  0  0
    0.7830   25.8820   -8.2330 S   0  0  0  0  0  0  0  0  0  0  0  0
   -0.6860   24.8790   -8.0480 C   0  0  0  0  0  0  0  0  0  0  0  0
  2  1  1  1
  3  2  1  0
  4  3  2  0
  5  2  1  0
  6  5  1  0
  5  7  1  1
  9  8  1  6
 10  9  1  0
 11 10  2  0
 12  9  1  0
 13 12  1  0
 14 13  2  0
 15 13  1  0
 16 10  1  0
 17 16  1  0
 18 17  1  0
 19 18  2  0
 17 20  1  6
 21 18  1  0
 22 21  1  0
 23 22  1  0
 24 23  2  0
 22 25  1  6
 26 25  1  0
 27 26  1  0
 28 27  1  0
 29 28  1  0
 30 23  1  0
 31 30  1  6
 32 31  1  0
 33 32  2  0
 34 31  1  0
 35 34  1  0
 34 36  1  1
 37 35  1  0
 39 38  1  1
 40 39  1  0
 41 40  2  0
 42 39  1  0
 43 42  1  0
 44 40  1  0
 45 44  1  0
 46 45  1  0
 47 46  2  0
 48 46  1  0
 49 48  1  0
 50 49  1  0
 51 50  2  0
 52 50  1  0
 53 52  1  0
 54 53  1  0
 55 54  2  0
 53 56  1  1
 57 56  1  0
 58 57  2  0
 59 57  1  0
 60 54  1  0
 61 60  1  0
 62 61  1  0
 63 62  2  0
 61 64  1  1
 65 64  1  0
 66 65  1  0
 67 65  1  0
 68 62  1  0
 69 68  1  0
 70 69  1  0
 71 70  2  0
 69 72  1  6
 73 72  1  0
 74 73  1  0
 75 74  2  0
 76 74  1  0
 77 70  1  0
 78 77  1  1
 79 78  1  0
 80 79  2  0
 81 78  1  0
 82 81  1  0
 81 83  1  1
 84 82  1  0
 86 85  1  1
 87 86  1  0
 88 87  2  0
 89 86  1  0
 90 89  1  0
 91 90  1  0
 92 91  1  0
 93 92  1  0
 94 93  1  0
 95 93  2  0
 96 87  1  0
 97 96  1  0
 98 97  1  0
 99 98  2  0
 97100  1  6
101100  1  0
102101  1  0
103102  1  0
104 98  1  0
105104  1  0
106105  1  0
107106  2  0
105108  1  1
109108  1  0
110109  2  0
111109  1  0
112110  1  0
113111  2  0
113112  1  0
114111  1  0
115113  1  0
116114  2  0
117116  1  0
117115  2  0
118106  1  0
119118  1  0
120119  1  0
121120  2  0
119122  1  1
123122  1  0
124123  1  0
125124  2  0
126124  1  0
128127  1  1
129128  1  0
130129  2  0
131128  1  0
132131  1  0
131133  1  1
135134  1  0
136135  1  0
137136  2  0
138136  1  0
139138  1  0
140139  1  0
141140  2  0
142140  1  0
143142  1  0
144143  1  0
145144  2  0
143146  1  6
147146  1  0
148147  2  0
149147  1  0
150144  1  0
151150  1  0
152151  1  0
153152  2  0
151154  1  1
155154  1  0
156155  1  0
157156  1  0
M  END
$$$$
