
     RDKit          3D

140137  0  0  0  0  0  0  0  0999 V2000
  -53.6070   24.3790   16.5520 N   0  0  0  0  0  0  0  0  0  0  0  0
  -53.1240   24.4380   17.9250 C   0  0  2  0  0  0  0  0  0  0  0  0
  -53.8310   23.3740   18.7450 C   0  0  0  0  0  0  0  0  0  0  0  0
  -55.0630   23.3540   18.7960 O   0  0  0  0  0  0  0  0  0  0  0  0
  -53.3950   25.8120   18.5440 C   0  0  0  0  0  0  0  0  0  0  0  0
  -52.9570   25.9450   19.9710 C   0  0  0  0  0  0  0  0  0  0  0  0
  -51.8300   25.4230   20.5350 C   0  0  0  0  0  0  0  0  0  0  0  0
  -53.6390   26.6520   21.0190 C   0  0  0  0  0  0  0  0  0  0  0  0
  -51.7640   25.7660   21.8660 N   0  0  0  0  0  0  0  0  0  0  0  0
  -52.8610   26.5220   22.1860 C   0  0  0  0  0  0  0  0  0  0  0  0
  -54.8240   27.3900   21.0790 C   0  0  0  0  0  0  0  0  0  0  0  0
  -53.2340   27.0950   23.3960 C   0  0  0  0  0  0  0  0  0  0  0  0
  -55.1890   27.9610   22.2790 C   0  0  0  0  0  0  0  0  0  0  0  0
  -54.3940   27.8160   23.4190 C   0  0  0  0  0  0  0  0  0  0  0  0
  -54.7490   22.5360   22.2120 N   0  0  0  0  0  0  0  0  0  0  0  0
  -54.7880   23.3410   23.4280 C   0  0  2  0  0  0  0  0  0  0  0  0
  -54.6220   22.4810   24.6730 C   0  0  0  0  0  0  0  0  0  0  0  0
  -53.8370   22.8180   25.5650 O   0  0  0  0  0  0  0  0  0  0  0  0
  -56.0910   24.1420   23.5000 C   0  0  0  0  0  0  0  0  0  0  0  0
  -56.0590   25.2610   24.5200 C   0  0  0  0  0  0  0  0  0  0  0  0
  -56.9700   25.0400   25.7050 C   0  0  0  0  0  0  0  0  0  0  0  0
  -57.8230   24.1460   25.7010 O   0  0  0  0  0  0  0  0  0  0  0  0
  -56.7910   25.8640   26.7400 N   0  0  0  0  0  0  0  0  0  0  0  0
  -53.2060   31.0000   20.2480 N   0  0  0  0  0  0  0  0  0  0  0  0
  -54.6440   30.9240   20.0520 C   0  0  2  0  0  0  0  0  0  0  0  0
  -55.1010   31.6960   18.8270 C   0  0  0  0  0  0  0  0  0  0  0  0
  -56.3010   31.7130   18.5420 O   0  0  0  0  0  0  0  0  0  0  0  0
  -55.3890   31.4220   21.2890 C   0  0  0  0  0  0  0  0  0  0  0  0
  -54.8600   32.7170   21.8190 C   0  0  0  0  0  0  0  0  0  0  0  0
  -55.9500   33.5720   22.4140 C   0  0  0  0  0  0  0  0  0  0  0  0
  -55.4420   34.9170   22.6480 N   0  0  0  0  0  0  0  0  0  0  0  0
  -56.1510   36.0270   22.4850 C   0  0  0  0  0  0  0  0  0  0  0  0
  -57.4100   35.9610   22.0820 N   0  0  0  0  0  0  0  0  0  0  0  0
  -55.5940   37.2060   22.7170 N   0  0  0  0  0  0  0  0  0  0  0  0
  -54.1790   32.3350   18.1010 N   0  0  0  0  0  0  0  0  0  0  0  0
  -54.4640   32.9100   16.7910 C   0  0  2  0  0  0  0  0  0  0  0  0
  -54.4130   31.8710   15.6780 C   0  0  0  0  0  0  0  0  0  0  0  0
  -54.5460   32.2260   14.5010 O   0  0  0  0  0  0  0  0  0  0  0  0
  -53.4860   34.0480   16.4890 C   0  0  0  0  0  0  0  0  0  0  0  0
  -53.4410   35.0780   17.5920 C   0  0  0  0  0  0  0  0  0  0  0  0
  -53.0260   34.7220   18.7110 O   0  0  0  0  0  0  0  0  0  0  0  0
  -53.8240   36.2390   17.3470 O   0  0  0  0  0  0  0  0  0  0  0  0
  -54.2110   30.6050   16.0330 N   0  0  0  0  0  0  0  0  0  0  0  0
  -54.2610   29.5230   15.0660 C   0  0  2  0  0  0  0  0  0  0  0  0
  -55.6370   29.4500   14.4230 C   0  0  0  0  0  0  0  0  0  0  0  0
  -56.6500   29.8170   15.0230 O   0  0  0  0  0  0  0  0  0  0  0  0
  -53.9340   28.1940   15.7430 C   0  0  0  0  0  0  0  0  0  0  0  0
  -55.6660   28.9620   13.1830 N   0  0  0  0  0  0  0  0  0  0  0  0
  -56.9270   28.8620   12.4590 C   0  0  2  0  0  0  0  0  0  0  0  0
  -57.8030   27.7490   13.0200 C   0  0  0  0  0  0  0  0  0  0  0  0
  -59.0200   27.9180   13.1500 O   0  0  0  0  0  0  0  0  0  0  0  0
  -56.6510   28.6460   10.9740 C   0  0  0  0  0  0  0  0  0  0  0  0
  -55.9260   29.8130   10.3460 C   0  0  0  0  0  0  0  0  0  0  0  0
  -56.2720   30.9680   10.6590 O   0  0  0  0  0  0  0  0  0  0  0  0
  -55.0020   29.5800    9.5450 O   0  0  0  0  0  0  0  0  0  0  0  0
  -57.2050   26.6130   13.3690 N   0  0  0  0  0  0  0  0  0  0  0  0
  -57.9260   25.4490   13.8740 C   0  0  2  0  0  0  0  0  0  0  0  0
  -57.4010   25.1570   15.2730 C   0  0  0  0  0  0  0  0  0  0  0  0
  -56.2700   24.6880   15.4280 O   0  0  0  0  0  0  0  0  0  0  0  0
  -57.7530   24.2270   12.9600 C   0  0  2  0  0  0  0  0  0  0  0  0
  -58.3440   24.4970   11.5770 C   0  0  0  0  0  0  0  0  0  0  0  0
  -58.3850   22.9940   13.5810 C   0  0  0  0  0  0  0  0  0  0  0  0
  -57.9920   23.4440   10.5490 C   0  0  0  0  0  0  0  0  0  0  0  0
  -58.2150   25.4140   16.2910 N   0  0  0  0  0  0  0  0  0  0  0  0
  -57.8110   25.2080   17.6780 C   0  0  2  0  0  0  0  0  0  0  0  0
  -58.4010   23.8900   18.1670 C   0  0  0  0  0  0  0  0  0  0  0  0
  -59.6220   23.6960   18.1390 O   0  0  0  0  0  0  0  0  0  0  0  0
  -58.2440   26.3840   18.5670 C   0  0  0  0  0  0  0  0  0  0  0  0
  -58.0970   26.0260   20.0300 C   0  0  0  0  0  0  0  0  0  0  0  0
  -57.4150   27.6100   18.2400 C   0  0  0  0  0  0  0  0  0  0  0  0
  -57.5310   22.9850   18.6140 N   0  0  0  0  0  0  0  0  0  0  0  0
  -57.9310   21.6630   19.0800 C   0  0  2  0  0  0  0  0  0  0  0  0
  -58.1280   21.7080   20.5870 C   0  0  0  0  0  0  0  0  0  0  0  0
  -57.2440   22.1570   21.3230 O   0  0  0  0  0  0  0  0  0  0  0  0
  -56.8800   20.6090   18.7010 C   0  0  2  0  0  0  0  0  0  0  0  0
  -56.9030   20.3560   17.2000 C   0  0  0  0  0  0  0  0  0  0  0  0
  -57.1340   19.3230   19.4470 C   0  0  0  0  0  0  0  0  0  0  0  0
  -58.2010   19.7940   16.7460 C   0  0  0  0  0  0  0  0  0  0  0  0
  -59.2800   21.2280   21.0520 N   0  0  0  0  0  0  0  0  0  0  0  0
  -59.6100   21.2600   22.4690 C   0  0  2  0  0  0  0  0  0  0  0  0
  -60.3260   19.9760   22.8600 C   0  0  0  0  0  0  0  0  0  0  0  0
  -61.0480   19.3830   22.0590 O   0  0  0  0  0  0  0  0  0  0  0  0
  -60.4890   22.4780   22.8080 C   0  0  0  0  0  0  0  0  0  0  0  0
  -61.0260   22.5180   24.2370 C   0  0  0  0  0  0  0  0  0  0  0  0
  -61.8580   23.7540   24.5220 C   0  0  0  0  0  0  0  0  0  0  0  0
  -61.6970   24.7860   23.8780 O   0  0  0  0  0  0  0  0  0  0  0  0
  -62.7660   23.6470   25.4850 N   0  0  0  0  0  0  0  0  0  0  0  0
  -67.9000   24.0490   27.6970 N   0  0  0  0  0  0  0  0  0  0  0  0
  -66.4530   24.2290   27.6310 C   0  0  2  0  0  0  0  0  0  0  0  0
  -66.0040   25.4480   26.8260 C   0  0  0  0  0  0  0  0  0  0  0  0
  -64.8400   25.4920   26.4100 O   0  0  0  0  0  0  0  0  0  0  0  0
  -65.8060   22.9710   27.0380 C   0  0  0  0  0  0  0  0  0  0  0  0
  -66.4820   22.4740   25.8000 C   0  0  0  0  0  0  0  0  0  0  0  0
  -67.4730   21.5160   25.8270 N   0  0  0  0  0  0  0  0  0  0  0  0
  -66.3170   22.8060   24.4980 C   0  0  0  0  0  0  0  0  0  0  0  0
  -67.8860   21.2780   24.5960 C   0  0  0  0  0  0  0  0  0  0  0  0
  -67.2010   22.0470   23.7700 N   0  0  0  0  0  0  0  0  0  0  0  0
  -66.8700   26.4320   26.5920 N   0  0  0  0  0  0  0  0  0  0  0  0
  -66.4400   27.6370   25.9050 C   0  0  0  0  0  0  0  0  0  0  0  0
  -67.2840   28.0470   24.7140 C   0  0  0  0  0  0  0  0  0  0  0  0
  -66.9490   29.0120   24.0190 O   0  0  0  0  0  0  0  0  0  0  0  0
  -62.4060   33.2760   15.0300 N   0  0  0  0  0  0  0  0  0  0  0  0
  -63.0820   32.9410   16.2700 C   0  0  0  0  0  0  0  0  0  0  0  0
  -63.1990   31.4580   16.5520 C   0  0  0  0  0  0  0  0  0  0  0  0
  -62.2650   30.6950   16.2910 O   0  0  0  0  0  0  0  0  0  0  0  0
  -64.3450   31.0350   17.0960 N   0  0  0  0  0  0  0  0  0  0  0  0
  -64.5720   29.6140   17.3270 C   0  0  2  0  0  0  0  0  0  0  0  0
  -64.6500   28.8460   16.0200 C   0  0  0  0  0  0  0  0  0  0  0  0
  -64.5180   27.6180   16.0200 O   0  0  0  0  0  0  0  0  0  0  0  0
  -65.8560   29.3710   18.1400 C   0  0  2  0  0  0  0  0  0  0  0  0
  -67.0840   29.8020   17.3360 C   0  0  0  0  0  0  0  0  0  0  0  0
  -65.7930   30.1000   19.4680 C   0  0  0  0  0  0  0  0  0  0  0  0
  -68.2720   28.8860   17.5100 C   0  0  0  0  0  0  0  0  0  0  0  0
  -64.8700   29.5350   14.9060 N   0  0  0  0  0  0  0  0  0  0  0  0
  -64.9790   28.8670   13.6200 C   0  0  2  0  0  0  0  0  0  0  0  0
  -63.6560   28.2110   13.2500 C   0  0  0  0  0  0  0  0  0  0  0  0
  -62.5780   28.7380   13.5390 O   0  0  0  0  0  0  0  0  0  0  0  0
  -65.4080   29.8640   12.5450 C   0  0  0  0  0  0  0  0  0  0  0  0
  -66.7420   30.5280   12.8360 C   0  0  0  0  0  0  0  0  0  0  0  0
  -67.2640   31.3200   11.6620 C   0  0  0  0  0  0  0  0  0  0  0  0
  -67.5070   32.5210   11.7670 O   0  0  0  0  0  0  0  0  0  0  0  0
  -67.4440   30.6500   10.5330 N   0  0  0  0  0  0  0  0  0  0  0  0
  -62.4620   25.7180   14.6890 N   0  0  0  0  0  0  0  0  0  0  0  0
  -62.0180   24.9300   15.8270 C   0  0  2  0  0  0  0  0  0  0  0  0
  -62.6750   23.5550   15.8020 C   0  0  0  0  0  0  0  0  0  0  0  0
  -63.7940   23.3860   15.3170 O   0  0  0  0  0  0  0  0  0  0  0  0
  -62.3510   25.6440   17.1420 C   0  0  0  0  0  0  0  0  0  0  0  0
  -61.5030   26.8890   17.3750 C   0  0  0  0  0  0  0  0  0  0  0  0
  -60.8600   27.3800   16.4250 O   0  0  0  0  0  0  0  0  0  0  0  0
  -61.4850   27.3840   18.5220 O   0  0  0  0  0  0  0  0  0  0  0  0
  -63.5330   20.4280   18.5560 N   0  0  0  0  0  0  0  0  0  0  0  0
  -63.6300   20.1070   19.9730 C   0  0  2  0  0  0  0  0  0  0  0  0
  -63.9890   18.6380   20.1410 C   0  0  0  0  0  0  0  0  0  0  0  0
  -64.7970   18.0990   19.3820 O   0  0  0  0  0  0  0  0  0  0  0  0
  -64.6720   20.9870   20.6790 C   0  0  0  0  0  0  0  0  0  0  0  0
  -64.3910   22.4570   20.5810 C   0  0  0  0  0  0  0  0  0  0  0  0
  -63.1320   22.9890   20.7540 N   0  0  0  0  0  0  0  0  0  0  0  0
  -65.2090   23.5050   20.3290 C   0  0  0  0  0  0  0  0  0  0  0  0
  -63.1850   24.3010   20.6100 C   0  0  0  0  0  0  0  0  0  0  0  0
  -64.4340   24.6390   20.3510 N   0  0  0  0  0  0  0  0  0  0  0  0
  2  1  1  6
  3  2  1  0
  4  3  2  0
  5  2  1  0
  6  5  1  0
  7  6  2  0
  8  6  1  0
  9  7  1  0
 10  8  2  0
 10  9  1  0
 11  8  1  0
 12 10  1  0
 13 11  2  0
 14 13  1  0
 14 12  2  0
 16 15  1  6
 17 16  1  0
 18 17  2  0
 19 16  1  0
 20 19  1  0
 21 20  1  0
 22 21  2  0
 23 21  1  0
 25 24  1  1
 26 25  1  0
 27 26  2  0
 28 25  1  0
 29 28  1  0
 30 29  1  0
 31 30  1  0
 32 31  1  0
 33 32  1  0
 34 32  2  0
 35 26  1  0
 36 35  1  0
 37 36  1  0
 38 37  2  0
 36 39  1  6
 40 39  1  0
 41 40  2  0
 42 40  1  0
 43 37  1  0
 44 43  1  0
 45 44  1  0
 46 45  2  0
 44 47  1  1
 48 45  1  0
 49 48  1  0
 50 49  1  0
 51 50  2  0
 49 52  1  6
 53 52  1  0
 54 53  2  0
 55 53  1  0
 56 50  1  0
 57 56  1  6
 58 57  1  0
 59 58  2  0
 60 57  1  0
 61 60  1  0
 60 62  1  1
 63 61  1  0
 64 58  1  0
 65 64  1  6
 66 65  1  0
 67 66  2  0
 68 65  1  0
 69 68  1  0
 70 68  1  0
 71 66  1  0
 72 71  1  1
 73 72  1  0
 74 73  2  0
 75 72  1  0
 76 75  1  0
 75 77  1  1
 78 76  1  0
 79 73  1  0
 80 79  1  0
 81 80  1  0
 82 81  2  0
 80 83  1  6
 84 83  1  0
 85 84  1  0
 86 85  2  0
 87 85  1  0
 89 88  1  6
 90 89  1  0
 91 90  2  0
 92 89  1  0
 93 92  1  0
 94 93  1  0
 95 93  2  0
 96 94  2  0
 97 96  1  0
 97 95  1  0
 98 90  1  0
 99 98  1  0
100 99  1  0
101100  2  0
103102  1  0
104103  1  0
105104  2  0
106104  1  0
107106  1  6
108107  1  0
109108  2  0
110107  1  0
111110  1  0
110112  1  1
113111  1  0
114108  1  0
115114  1  0
116115  1  0
117116  2  0
115118  1  6
119118  1  0
120119  1  0
121120  2  0
122120  1  0
124123  1  6
125124  1  0
126125  2  0
127124  1  0
128127  1  0
129128  2  0
130128  1  0
132131  1  6
133132  1  0
134133  2  0
135132  1  0
136135  1  0
137136  1  0
138136  2  0
139137  2  0
140139  1  0
140138  1  0
M  END
$$$$
