
     RDKit          3D

137132  0  0  0  0  0  0  0  0999 V2000
   28.3780   41.3790  -39.3590 N   0  0  0  0  0  0  0  0  0  0  0  0
   28.0070   39.9990  -39.0690 C   0  0  2  0  0  0  0  0  0  0  0  0
   26.5760   39.9770  -38.5560 C   0  0  0  0  0  0  0  0  0  0  0  0
   26.1890   40.8080  -37.7230 O   0  0  0  0  0  0  0  0  0  0  0  0
   28.9720   39.3660  -38.0490 C   0  0  2  0  0  0  0  0  0  0  0  0
   30.4230   39.5720  -38.4860 C   0  0  0  0  0  0  0  0  0  0  0  0
   28.6760   37.8840  -37.8830 C   0  0  0  0  0  0  0  0  0  0  0  0
   31.4390   39.0720  -37.4820 C   0  0  0  0  0  0  0  0  0  0  0  0
   23.4740   37.3330  -37.0480 N   0  0  0  0  0  0  0  0  0  0  0  0
   23.1860   36.0370  -36.4830 C   0  0  0  0  0  0  0  0  0  0  0  0
   22.4940   36.1260  -35.1380 C   0  0  0  0  0  0  0  0  0  0  0  0
   21.9490   37.1680  -34.7610 O   0  0  0  0  0  0  0  0  0  0  0  0
   22.5000   35.0170  -34.3800 N   0  0  0  0  0  0  0  0  0  0  0  0
   23.1210   33.7490  -34.7740 C   0  0  2  0  0  0  0  0  0  0  0  0
   22.1790   32.8520  -35.5750 C   0  0  0  0  0  0  0  0  0  0  0  0
   22.3980   31.6440  -35.6540 O   0  0  0  0  0  0  0  0  0  0  0  0
   23.4780   33.0970  -33.4290 C   0  0  0  0  0  0  0  0  0  0  0  0
   22.8860   34.0020  -32.3480 C   0  0  0  0  0  0  0  0  0  0  0  0
   21.9410   34.9370  -33.0240 C   0  0  0  0  0  0  0  0  0  0  0  0
   26.0670   34.6910  -39.7090 N   0  0  0  0  0  0  0  0  0  0  0  0
   26.5270   33.7370  -38.7070 C   0  0  2  0  0  0  0  0  0  0  0  0
   25.3570   32.8380  -38.3280 C   0  0  0  0  0  0  0  0  0  0  0  0
   24.4100   33.2830  -37.6710 O   0  0  0  0  0  0  0  0  0  0  0  0
   27.0810   34.4750  -37.4920 C   0  0  0  0  0  0  0  0  0  0  0  0
   28.1260   33.7040  -36.7050 C   0  0  0  0  0  0  0  0  0  0  0  0
   28.7120   34.5260  -35.5750 C   0  0  0  0  0  0  0  0  0  0  0  0
   28.0380   35.4730  -35.1190 O   0  0  0  0  0  0  0  0  0  0  0  0
   29.8490   34.2340  -35.1490 O   0  0  0  0  0  0  0  0  0  0  0  0
   35.4170   30.6290  -32.3150 N   0  0  0  0  0  0  0  0  0  0  0  0
   33.9970   30.8940  -32.1320 C   0  0  2  0  0  0  0  0  0  0  0  0
   33.2690   30.5290  -33.4160 C   0  0  0  0  0  0  0  0  0  0  0  0
   33.6780   30.9480  -34.5040 O   0  0  0  0  0  0  0  0  0  0  0  0
   33.7430   32.3590  -31.7630 C   0  0  0  0  0  0  0  0  0  0  0  0
   32.3070   32.6610  -31.4400 C   0  0  0  0  0  0  0  0  0  0  0  0
   31.6060   31.8740  -30.5410 C   0  0  0  0  0  0  0  0  0  0  0  0
   31.6610   33.7370  -32.0260 C   0  0  0  0  0  0  0  0  0  0  0  0
   30.2850   32.1480  -30.2390 C   0  0  0  0  0  0  0  0  0  0  0  0
   30.3400   34.0180  -31.7260 C   0  0  0  0  0  0  0  0  0  0  0  0
   29.6520   33.2220  -30.8320 C   0  0  0  0  0  0  0  0  0  0  0  0
   32.1970   29.7480  -33.2820 N   0  0  0  0  0  0  0  0  0  0  0  0
   31.4600   29.1770  -34.4140 C   0  0  2  0  0  0  0  0  0  0  0  0
   32.4420   28.3220  -35.2060 C   0  0  0  0  0  0  0  0  0  0  0  0
   33.0080   27.3780  -34.6280 O   0  0  0  0  0  0  0  0  0  0  0  0
   30.7600   30.2980  -35.1870 C   0  0  0  0  0  0  0  0  0  0  0  0
   29.7410   31.0590  -34.3550 C   0  0  0  0  0  0  0  0  0  0  0  0
   28.6560   30.1570  -33.7980 C   0  0  0  0  0  0  0  0  0  0  0  0
   27.7530   29.7670  -34.5670 O   0  0  0  0  0  0  0  0  0  0  0  0
   28.7140   29.8290  -32.5950 O   0  0  0  0  0  0  0  0  0  0  0  0
   35.7000   32.2940  -37.5240 N   0  0  0  0  0  0  0  0  0  0  0  0
   36.4310   33.4430  -37.0130 C   0  0  2  0  0  0  0  0  0  0  0  0
   36.9710   33.1460  -35.6210 C   0  0  0  0  0  0  0  0  0  0  0  0
   36.6580   32.1210  -35.0070 O   0  0  0  0  0  0  0  0  0  0  0  0
   35.5520   34.7010  -36.9770 C   0  0  0  0  0  0  0  0  0  0  0  0
   34.2780   34.5550  -36.1620 C   0  0  0  0  0  0  0  0  0  0  0  0
   33.8140   35.9060  -35.6440 C   0  0  0  0  0  0  0  0  0  0  0  0
   32.4140   35.8940  -35.2330 N   0  0  0  0  0  0  0  0  0  0  0  0
   31.8130   36.9000  -34.6080 C   0  0  0  0  0  0  0  0  0  0  0  0
   32.4940   37.9990  -34.3110 N   0  0  0  0  0  0  0  0  0  0  0  0
   30.5330   36.8080  -34.2740 N   0  0  0  0  0  0  0  0  0  0  0  0
   35.0850   38.6570  -25.3180 N   0  0  0  0  0  0  0  0  0  0  0  0
   33.8780   38.5030  -26.1230 C   0  0  2  0  0  0  0  0  0  0  0  0
   33.0030   37.3760  -25.5890 C   0  0  0  0  0  0  0  0  0  0  0  0
   31.8040   37.5650  -25.3560 O   0  0  0  0  0  0  0  0  0  0  0  0
   34.2490   38.2530  -27.5850 C   0  0  0  0  0  0  0  0  0  0  0  0
   33.0650   38.2010  -28.5100 C   0  0  0  0  0  0  0  0  0  0  0  0
   32.4450   39.3660  -28.9270 C   0  0  0  0  0  0  0  0  0  0  0  0
   32.5750   36.9880  -28.9650 C   0  0  0  0  0  0  0  0  0  0  0  0
   31.3580   39.3250  -29.7770 C   0  0  0  0  0  0  0  0  0  0  0  0
   31.4870   36.9400  -29.8170 C   0  0  0  0  0  0  0  0  0  0  0  0
   30.8780   38.1100  -30.2230 C   0  0  0  0  0  0  0  0  0  0  0  0
   30.8710   37.8310  -22.6220 N   0  0  0  0  0  0  0  0  0  0  0  0
   29.6430   38.5940  -22.7910 C   0  0  2  0  0  0  0  0  0  0  0  0
   28.5400   37.8130  -23.4890 C   0  0  0  0  0  0  0  0  0  0  0  0
   27.4200   38.3250  -23.6010 O   0  0  0  0  0  0  0  0  0  0  0  0
   29.9200   39.8840  -23.5800 C   0  0  0  0  0  0  0  0  0  0  0  0
   30.7110   40.8990  -22.7810 C   0  0  0  0  0  0  0  0  0  0  0  0
   30.1410   41.7770  -22.1330 O   0  0  0  0  0  0  0  0  0  0  0  0
   32.0340   40.7860  -22.8240 N   0  0  0  0  0  0  0  0  0  0  0  0
   28.8210   36.6020  -23.9630 N   0  0  0  0  0  0  0  0  0  0  0  0
   27.8100   35.7830  -24.6190 C   0  0  2  0  0  0  0  0  0  0  0  0
   27.0070   35.0340  -23.5650 C   0  0  0  0  0  0  0  0  0  0  0  0
   27.5280   34.6400  -22.5150 O   0  0  0  0  0  0  0  0  0  0  0  0
   28.4620   34.8130  -25.6240 C   0  0  2  0  0  0  0  0  0  0  0  0
   29.4980   35.5420  -26.4780 C   0  0  0  0  0  0  0  0  0  0  0  0
   27.4080   34.1840  -26.5210 C   0  0  0  0  0  0  0  0  0  0  0  0
   30.2030   34.6430  -27.4690 C   0  0  0  0  0  0  0  0  0  0  0  0
   25.7220   34.8340  -23.8440 N   0  0  0  0  0  0  0  0  0  0  0  0
   24.8200   34.1420  -22.9350 C   0  0  2  0  0  0  0  0  0  0  0  0
   23.9980   33.1360  -23.7260 C   0  0  0  0  0  0  0  0  0  0  0  0
   23.3810   33.4930  -24.7350 O   0  0  0  0  0  0  0  0  0  0  0  0
   23.9070   35.1350  -22.2090 C   0  0  0  0  0  0  0  0  0  0  0  0
   23.2260   34.6530  -20.9300 C   0  0  0  0  0  0  0  0  0  0  0  0
   24.2590   34.1260  -19.9490 C   0  0  0  0  0  0  0  0  0  0  0  0
   22.4320   35.7860  -20.3100 C   0  0  0  0  0  0  0  0  0  0  0  0
   23.9900   31.8860  -23.2680 N   0  0  0  0  0  0  0  0  0  0  0  0
   23.2780   30.8250  -23.9650 C   0  0  2  0  0  0  0  0  0  0  0  0
   21.7690   31.0550  -23.8830 C   0  0  0  0  0  0  0  0  0  0  0  0
   21.2870   31.9920  -23.2400 O   0  0  0  0  0  0  0  0  0  0  0  0
   23.6550   29.4650  -23.3840 C   0  0  0  0  0  0  0  0  0  0  0  0
   23.2690   29.3660  -22.0240 O   0  0  0  0  0  0  0  0  0  0  0  0
   21.0170   30.1780  -24.5510 N   0  0  0  0  0  0  0  0  0  0  0  0
   19.5620   30.2740  -24.5590 C   0  0  2  0  0  0  0  0  0  0  0  0
   19.0200   30.2920  -23.1360 C   0  0  0  0  0  0  0  0  0  0  0  0
   19.4500   29.5130  -22.2820 O   0  0  0  0  0  0  0  0  0  0  0  0
   18.9590   29.1060  -25.3410 C   0  0  0  0  0  0  0  0  0  0  0  0
   18.0720   31.1940  -22.8880 N   0  0  0  0  0  0  0  0  0  0  0  0
   17.6120   31.4530  -21.5290 C   0  0  2  0  0  0  0  0  0  0  0  0
   16.9220   30.2260  -20.9480 C   0  0  0  0  0  0  0  0  0  0  0  0
   15.9720   29.6960  -21.5330 O   0  0  0  0  0  0  0  0  0  0  0  0
   16.6680   32.6520  -21.5010 C   0  0  0  0  0  0  0  0  0  0  0  0
   16.1370   32.9570  -20.1070 C   0  0  0  0  0  0  0  0  0  0  0  0
   15.1500   34.1060  -20.0880 C   0  0  0  0  0  0  0  0  0  0  0  0
   15.0920   34.8610  -21.0810 O   0  0  0  0  0  0  0  0  0  0  0  0
   14.4300   34.2510  -19.0770 O   0  0  0  0  0  0  0  0  0  0  0  0
   17.4090   29.7800  -19.7940 N   0  0  0  0  0  0  0  0  0  0  0  0
   16.7960   28.7060  -19.0300 C   0  0  2  0  0  0  0  0  0  0  0  0
   17.0250   29.0020  -17.5540 C   0  0  0  0  0  0  0  0  0  0  0  0
   17.5670   30.0490  -17.1900 O   0  0  0  0  0  0  0  0  0  0  0  0
   17.3660   27.3410  -19.4320 C   0  0  0  0  0  0  0  0  0  0  0  0
   17.2070   27.1060  -20.8210 O   0  0  0  0  0  0  0  0  0  0  0  0
   20.8430   28.5300  -17.2300 N   0  0  0  0  0  0  0  0  0  0  0  0
   21.5320   29.1250  -18.3670 C   0  0  2  0  0  0  0  0  0  0  0  0
   22.6790   29.9980  -17.8770 C   0  0  0  0  0  0  0  0  0  0  0  0
   22.4880   30.8550  -17.0090 O   0  0  0  0  0  0  0  0  0  0  0  0
   20.5660   29.9550  -19.2110 C   0  0  0  0  0  0  0  0  0  0  0  0
   21.2590   30.7030  -20.1940 O   0  0  0  0  0  0  0  0  0  0  0  0
   29.2480   31.3770  -21.9320 N   0  0  0  0  0  0  0  0  0  0  0  0
   29.9850   30.4240  -22.7450 C   0  0  2  0  0  0  0  0  0  0  0  0
   31.3190   30.0790  -22.0890 C   0  0  0  0  0  0  0  0  0  0  0  0
   31.8500   30.8290  -21.2660 O   0  0  0  0  0  0  0  0  0  0  0  0
   30.2140   30.9750  -24.1550 C   0  0  0  0  0  0  0  0  0  0  0  0
   29.0270   30.8230  -25.0680 C   0  0  0  0  0  0  0  0  0  0  0  0
   27.7710   30.5300  -24.5580 C   0  0  0  0  0  0  0  0  0  0  0  0
   29.1710   30.9550  -26.4390 C   0  0  0  0  0  0  0  0  0  0  0  0
   26.6820   30.3850  -25.3970 C   0  0  0  0  0  0  0  0  0  0  0  0
   28.0850   30.8090  -27.2840 C   0  0  0  0  0  0  0  0  0  0  0  0
   26.8390   30.5240  -26.7610 C   0  0  0  0  0  0  0  0  0  0  0  0
  2  1  1  1
  3  2  1  0
  4  3  2  0
  5  2  1  0
  6  5  1  0
  5  7  1  6
  8  6  1  0
 10  9  1  0
 11 10  1  0
 12 11  2  0
 13 11  1  0
 14 13  1  0
 14 15  1  1
 16 15  2  0
 17 14  1  0
 18 17  1  0
 19 13  1  0
 19 18  1  0
 21 20  1  6
 22 21  1  0
 23 22  2  0
 24 21  1  0
 25 24  1  0
 26 25  1  0
 27 26  2  0
 28 26  1  0
 30 29  1  6
 31 30  1  0
 32 31  2  0
 33 30  1  0
 34 33  1  0
 35 34  2  0
 36 34  1  0
 37 35  1  0
 38 36  2  0
 39 37  2  0
 39 38  1  0
 40 31  1  0
 41 40  1  0
 42 41  1  0
 43 42  2  0
 41 44  1  6
 45 44  1  0
 46 45  1  0
 47 46  2  0
 48 46  1  0
 50 49  1  1
 51 50  1  0
 52 51  2  0
 53 50  1  0
 54 53  1  0
 55 54  1  0
 56 55  1  0
 57 56  1  0
 58 57  1  0
 59 57  2  0
 61 60  1  1
 62 61  1  0
 63 62  2  0
 64 61  1  0
 65 64  1  0
 66 65  2  0
 67 65  1  0
 68 66  1  0
 69 67  2  0
 70 69  1  0
 70 68  2  0
 72 71  1  6
 73 72  1  0
 74 73  2  0
 75 72  1  0
 76 75  1  0
 77 76  2  0
 78 76  1  0
 79 73  1  0
 80 79  1  1
 81 80  1  0
 82 81  2  0
 83 80  1  0
 84 83  1  0
 83 85  1  6
 86 84  1  0
 87 81  1  0
 88 87  1  0
 89 88  1  0
 90 89  2  0
 88 91  1  6
 92 91  1  0
 93 92  1  0
 94 92  1  0
 95 89  1  0
 96 95  1  0
 97 96  1  0
 98 97  2  0
 96 99  1  1
100 99  1  0
101 97  1  0
102101  1  0
103102  1  0
104103  2  0
102105  1  6
106103  1  0
107106  1  0
108107  1  0
109108  2  0
107110  1  6
111110  1  0
112111  1  0
113112  2  0
114112  1  0
115108  1  0
116115  1  0
117116  1  0
118117  2  0
116119  1  6
120119  1  0
122121  1  1
123122  1  0
124123  2  0
125122  1  0
126125  1  0
128127  1  1
129128  1  0
130129  2  0
131128  1  0
132131  1  0
133132  2  0
134132  1  0
135133  1  0
136134  2  0
137135  2  0
137136  1  0
M  END
$$$$
