
     RDKit          3D

131126  0  0  0  0  0  0  0  0999 V2000
   19.9250  -43.7630   35.7810 N   0  0  0  0  0  0  0  0  0  0  0  0
   19.5820  -42.4240   35.3190 C   0  0  2  0  0  0  0  0  0  0  0  0
   18.4030  -42.5270   34.3610 C   0  0  0  0  0  0  0  0  0  0  0  0
   18.4110  -43.3490   33.4370 O   0  0  0  0  0  0  0  0  0  0  0  0
   20.7850  -41.7490   34.6410 C   0  0  2  0  0  0  0  0  0  0  0  0
   22.0070  -41.7860   35.5610 C   0  0  0  0  0  0  0  0  0  0  0  0
   20.4480  -40.3150   34.2640 C   0  0  0  0  0  0  0  0  0  0  0  0
   23.2620  -41.2250   34.9280 C   0  0  0  0  0  0  0  0  0  0  0  0
   15.7240  -40.2350   31.8360 N   0  0  0  0  0  0  0  0  0  0  0  0
   15.5810  -38.9840   31.1310 C   0  0  0  0  0  0  0  0  0  0  0  0
   15.3990  -39.1640   29.6380 C   0  0  0  0  0  0  0  0  0  0  0  0
   15.0830  -40.2560   29.1540 O   0  0  0  0  0  0  0  0  0  0  0  0
   15.6010  -38.0820   28.8680 N   0  0  0  0  0  0  0  0  0  0  0  0
   15.9960  -36.7650   29.3780 C   0  0  2  0  0  0  0  0  0  0  0  0
   14.8100  -35.9070   29.8150 C   0  0  0  0  0  0  0  0  0  0  0  0
   14.9390  -34.6870   29.9180 O   0  0  0  0  0  0  0  0  0  0  0  0
   16.7140  -36.1220   28.1800 C   0  0  0  0  0  0  0  0  0  0  0  0
   16.5530  -37.0940   27.0150 C   0  0  0  0  0  0  0  0  0  0  0  0
   15.4990  -38.0770   27.4030 C   0  0  0  0  0  0  0  0  0  0  0  0
   17.3890  -37.2920   34.9980 N   0  0  0  0  0  0  0  0  0  0  0  0
   18.0670  -36.3160   34.1530 C   0  0  2  0  0  0  0  0  0  0  0  0
   17.0200  -35.5600   33.3460 C   0  0  0  0  0  0  0  0  0  0  0  0
   16.4040  -36.1200   32.4350 O   0  0  0  0  0  0  0  0  0  0  0  0
   19.0710  -37.0170   33.2430 C   0  0  0  0  0  0  0  0  0  0  0  0
   20.2100  -36.1310   32.7690 C   0  0  0  0  0  0  0  0  0  0  0  0
   21.3320  -36.9250   32.1280 C   0  0  0  0  0  0  0  0  0  0  0  0
   21.0470  -37.9850   31.5310 O   0  0  0  0  0  0  0  0  0  0  0  0
   22.5010  -36.4960   32.2290 O   0  0  0  0  0  0  0  0  0  0  0  0
   28.3990  -33.2100   30.8630 N   0  0  0  0  0  0  0  0  0  0  0  0
   27.1270  -33.4810   30.2070 C   0  0  2  0  0  0  0  0  0  0  0  0
   26.0020  -33.0410   31.1300 C   0  0  0  0  0  0  0  0  0  0  0  0
   26.0080  -33.3710   32.3210 O   0  0  0  0  0  0  0  0  0  0  0  0
   26.9870  -34.9630   29.8520 C   0  0  0  0  0  0  0  0  0  0  0  0
   25.7640  -35.2750   29.0380 C   0  0  0  0  0  0  0  0  0  0  0  0
   25.5340  -34.6260   27.8370 C   0  0  0  0  0  0  0  0  0  0  0  0
   24.8510  -36.2220   29.4690 C   0  0  0  0  0  0  0  0  0  0  0  0
   24.4110  -34.9090   27.0840 C   0  0  0  0  0  0  0  0  0  0  0  0
   23.7260  -36.5120   28.7190 C   0  0  0  0  0  0  0  0  0  0  0  0
   23.5060  -35.8540   27.5250 C   0  0  0  0  0  0  0  0  0  0  0  0
   25.0420  -32.2990   30.5760 N   0  0  0  0  0  0  0  0  0  0  0  0
   23.9740  -31.6500   31.3430 C   0  0  2  0  0  0  0  0  0  0  0  0
   24.6520  -30.7490   32.3690 C   0  0  0  0  0  0  0  0  0  0  0  0
   25.4070  -29.8480   31.9640 O   0  0  0  0  0  0  0  0  0  0  0  0
   23.0250  -32.7110   31.9030 C   0  0  0  0  0  0  0  0  0  0  0  0
   22.3950  -33.5920   30.8380 C   0  0  0  0  0  0  0  0  0  0  0  0
   21.5380  -32.8060   29.8640 C   0  0  0  0  0  0  0  0  0  0  0  0
   20.5410  -32.1970   30.3040 O   0  0  0  0  0  0  0  0  0  0  0  0
   21.8680  -32.7910   28.6590 O   0  0  0  0  0  0  0  0  0  0  0  0
   27.0140  -34.5850   35.6820 N   0  0  0  0  0  0  0  0  0  0  0  0
   27.7890  -35.7920   35.4290 C   0  0  2  0  0  0  0  0  0  0  0  0
   28.7450  -35.5800   34.2630 C   0  0  0  0  0  0  0  0  0  0  0  0
   28.5580  -34.6940   33.4250 O   0  0  0  0  0  0  0  0  0  0  0  0
   26.8800  -37.0020   35.1560 C   0  0  0  0  0  0  0  0  0  0  0  0
   26.2060  -37.0140   33.7930 C   0  0  0  0  0  0  0  0  0  0  0  0
   25.2060  -38.1590   33.7130 C   0  0  0  0  0  0  0  0  0  0  0  0
   24.6010  -38.2970   32.3910 N   0  0  0  0  0  0  0  0  0  0  0  0
   24.8680  -39.2900   31.5500 C   0  0  0  0  0  0  0  0  0  0  0  0
   25.7270  -40.2400   31.8930 N   0  0  0  0  0  0  0  0  0  0  0  0
   24.2700  -39.3390   30.3680 N   0  0  0  0  0  0  0  0  0  0  0  0
   30.2880  -41.3010   24.2380 N   0  0  0  0  0  0  0  0  0  0  0  0
   28.8820  -41.1740   24.6030 C   0  0  2  0  0  0  0  0  0  0  0  0
   28.1930  -40.1010   23.7700 C   0  0  0  0  0  0  0  0  0  0  0  0
   27.0950  -40.3190   23.2460 O   0  0  0  0  0  0  0  0  0  0  0  0
   28.7500  -40.8620   26.0950 C   0  0  0  0  0  0  0  0  0  0  0  0
   27.3300  -40.8270   26.5820 C   0  0  0  0  0  0  0  0  0  0  0  0
   26.6270  -42.0020   26.7840 C   0  0  0  0  0  0  0  0  0  0  0  0
   26.7000  -39.6210   26.8420 C   0  0  0  0  0  0  0  0  0  0  0  0
   25.3200  -41.9770   27.2330 C   0  0  0  0  0  0  0  0  0  0  0  0
   25.3930  -39.5890   27.2920 C   0  0  0  0  0  0  0  0  0  0  0  0
   24.7020  -40.7690   27.4870 C   0  0  0  0  0  0  0  0  0  0  0  0
   27.0840  -40.6690   20.2250 N   0  0  0  0  0  0  0  0  0  0  0  0
   25.8720  -41.4580   20.0550 C   0  0  2  0  0  0  0  0  0  0  0  0
   24.6070  -40.6800   20.3920 C   0  0  0  0  0  0  0  0  0  0  0  0
   23.5060  -41.2180   20.2330 O   0  0  0  0  0  0  0  0  0  0  0  0
   25.9360  -42.7250   20.9170 C   0  0  0  0  0  0  0  0  0  0  0  0
   26.9370  -43.7340   20.3970 C   0  0  0  0  0  0  0  0  0  0  0  0
   26.5880  -44.6330   19.6310 O   0  0  0  0  0  0  0  0  0  0  0  0
   28.1910  -43.5940   20.8120 N   0  0  0  0  0  0  0  0  0  0  0  0
   24.7310  -39.4420   20.8540 N   0  0  0  0  0  0  0  0  0  0  0  0
   23.5780  -38.6200   21.2030 C   0  0  2  0  0  0  0  0  0  0  0  0
   23.0710  -37.9250   19.9500 C   0  0  0  0  0  0  0  0  0  0  0  0
   23.8570  -37.4820   19.1040 O   0  0  0  0  0  0  0  0  0  0  0  0
   23.9390  -37.6000   22.2990 C   0  0  2  0  0  0  0  0  0  0  0  0
   24.6190  -38.2960   23.4760 C   0  0  0  0  0  0  0  0  0  0  0  0
   22.6950  -36.8730   22.7810 C   0  0  0  0  0  0  0  0  0  0  0  0
   25.0220  -37.3500   24.5810 C   0  0  0  0  0  0  0  0  0  0  0  0
   21.7500  -37.8260   19.8290 N   0  0  0  0  0  0  0  0  0  0  0  0
   21.1100  -37.1930   18.6850 C   0  0  2  0  0  0  0  0  0  0  0  0
   20.0700  -36.2040   19.1880 C   0  0  0  0  0  0  0  0  0  0  0  0
   19.2360  -36.5500   20.0300 O   0  0  0  0  0  0  0  0  0  0  0  0
   20.4610  -38.2400   17.7730 C   0  0  0  0  0  0  0  0  0  0  0  0
   20.0870  -37.7980   16.3590 C   0  0  0  0  0  0  0  0  0  0  0  0
   21.3190  -37.3140   15.6110 C   0  0  0  0  0  0  0  0  0  0  0  0
   19.4210  -38.9420   15.6150 C   0  0  0  0  0  0  0  0  0  0  0  0
   20.1210  -34.9780   18.6720 N   0  0  0  0  0  0  0  0  0  0  0  0
   19.1840  -33.9450   19.0880 C   0  0  2  0  0  0  0  0  0  0  0  0
   17.7790  -34.2720   18.5830 C   0  0  0  0  0  0  0  0  0  0  0  0
   17.5460  -35.2710   17.8960 O   0  0  0  0  0  0  0  0  0  0  0  0
   19.6430  -32.5800   18.5820 C   0  0  0  0  0  0  0  0  0  0  0  0
   19.6370  -32.5300   17.1660 O   0  0  0  0  0  0  0  0  0  0  0  0
   16.8250  -33.4130   18.9390 N   0  0  0  0  0  0  0  0  0  0  0  0
   15.4550  -33.5870   18.4780 C   0  0  2  0  0  0  0  0  0  0  0  0
   15.4010  -33.5270   16.9570 C   0  0  0  0  0  0  0  0  0  0  0  0
   16.0730  -32.7050   16.3270 O   0  0  0  0  0  0  0  0  0  0  0  0
   14.5480  -32.5170   19.0850 C   0  0  0  0  0  0  0  0  0  0  0  0
   14.5980  -34.4110   16.3680 N   0  0  0  0  0  0  0  0  0  0  0  0
   14.5550  -34.5380   14.9170 C   0  0  2  0  0  0  0  0  0  0  0  0
   14.0440  -33.2540   14.2790 C   0  0  0  0  0  0  0  0  0  0  0  0
   12.9540  -32.7740   14.6050 O   0  0  0  0  0  0  0  0  0  0  0  0
   13.6750  -35.7200   14.5160 C   0  0  0  0  0  0  0  0  0  0  0  0
   13.6040  -35.9460   13.0140 C   0  0  0  0  0  0  0  0  0  0  0  0
   12.8490  -37.2080   12.6450 C   0  0  0  0  0  0  0  0  0  0  0  0
   12.7780  -37.5270   11.4400 O   0  0  0  0  0  0  0  0  0  0  0  0
   12.3300  -37.8830   13.5590 O   0  0  0  0  0  0  0  0  0  0  0  0
   18.9170  -31.6810   11.7940 N   0  0  0  0  0  0  0  0  0  0  0  0
   19.2910  -32.2640   13.0740 C   0  0  2  0  0  0  0  0  0  0  0  0
   20.5660  -33.0820   12.9170 C   0  0  0  0  0  0  0  0  0  0  0  0
   20.7000  -33.8570   11.9660 O   0  0  0  0  0  0  0  0  0  0  0  0
   18.1630  -33.1430   13.6140 C   0  0  0  0  0  0  0  0  0  0  0  0
   18.5900  -33.8840   14.7440 O   0  0  0  0  0  0  0  0  0  0  0  0
   25.6680  -34.2440   18.7800 N   0  0  0  0  0  0  0  0  0  0  0  0
   26.1050  -33.2440   19.7420 C   0  0  2  0  0  0  0  0  0  0  0  0
   27.5730  -32.8900   19.5250 C   0  0  0  0  0  0  0  0  0  0  0  0
   28.3260  -33.6160   18.8730 O   0  0  0  0  0  0  0  0  0  0  0  0
   25.8860  -33.7340   21.1740 C   0  0  0  0  0  0  0  0  0  0  0  0
   24.4710  -33.5770   21.6620 C   0  0  0  0  0  0  0  0  0  0  0  0
   23.4290  -33.3960   20.7680 C   0  0  0  0  0  0  0  0  0  0  0  0
   24.1880  -33.5920   23.0180 C   0  0  0  0  0  0  0  0  0  0  0  0
   22.1300  -33.2480   21.2150 C   0  0  0  0  0  0  0  0  0  0  0  0
   22.8910  -33.4410   23.4710 C   0  0  0  0  0  0  0  0  0  0  0  0
   21.8610  -33.2690   22.5680 C   0  0  0  0  0  0  0  0  0  0  0  0
  2  1  1  6
  3  2  1  0
  4  3  2  0
  5  2  1  0
  6  5  1  0
  5  7  1  1
  8  6  1  0
 10  9  1  0
 11 10  1  0
 12 11  2  0
 13 11  1  0
 14 13  1  0
 14 15  1  6
 16 15  2  0
 17 14  1  0
 18 17  1  0
 19 13  1  0
 19 18  1  0
 21 20  1  6
 22 21  1  0
 23 22  2  0
 24 21  1  0
 25 24  1  0
 26 25  1  0
 27 26  2  0
 28 26  1  0
 30 29  1  1
 31 30  1  0
 32 31  2  0
 33 30  1  0
 34 33  1  0
 35 34  2  0
 36 34  1  0
 37 35  1  0
 38 36  2  0
 39 37  2  0
 39 38  1  0
 40 31  1  0
 41 40  1  0
 42 41  1  0
 43 42  2  0
 41 44  1  1
 45 44  1  0
 46 45  1  0
 47 46  2  0
 48 46  1  0
 50 49  1  6
 51 50  1  0
 52 51  2  0
 53 50  1  0
 54 53  1  0
 55 54  1  0
 56 55  1  0
 57 56  1  0
 58 57  1  0
 59 57  2  0
 61 60  1  6
 62 61  1  0
 63 62  2  0
 64 61  1  0
 65 64  1  0
 66 65  2  0
 67 65  1  0
 68 66  1  0
 69 67  2  0
 70 68  2  0
 70 69  1  0
 72 71  1  1
 73 72  1  0
 74 73  2  0
 75 72  1  0
 76 75  1  0
 77 76  2  0
 78 76  1  0
 79 73  1  0
 80 79  1  6
 81 80  1  0
 82 81  2  0
 83 80  1  0
 84 83  1  0
 83 85  1  1
 86 84  1  0
 87 81  1  0
 88 87  1  0
 89 88  1  0
 90 89  2  0
 88 91  1  6
 92 91  1  0
 93 92  1  0
 94 92  1  0
 95 89  1  0
 96 95  1  0
 97 96  1  0
 98 97  2  0
 96 99  1  6
100 99  1  0
101 97  1  0
102101  1  0
103102  1  0
104103  2  0
102105  1  1
106103  1  0
107106  1  0
108107  1  0
109108  2  0
107110  1  1
111110  1  0
112111  1  0
113112  2  0
114112  1  0
116115  1  6
117116  1  0
118117  2  0
119116  1  0
120119  1  0
122121  1  6
123122  1  0
124123  2  0
125122  1  0
126125  1  0
127126  2  0
128126  1  0
129127  1  0
130128  2  0
131129  2  0
131130  1  0
M  END
$$$$
