
     RDKit          3D

151147  0  0  0  0  0  0  0  0999 V2000
   44.8370 -413.4630  553.1500 N   0  0  0  0  0  0  0  0  0  0  0  0
   44.4610 -412.0620  553.2510 C   0  0  2  0  0  0  0  0  0  0  0  0
   43.2030 -411.8080  552.4320 C   0  0  0  0  0  0  0  0  0  0  0  0
   42.9610 -412.4700  551.4190 O   0  0  0  0  0  0  0  0  0  0  0  0
   45.6050 -411.1540  552.7750 C   0  0  0  0  0  0  0  0  0  0  0  0
   45.3820 -409.6410  552.7460 C   0  0  0  0  0  0  0  0  0  0  0  0
   46.5990 -408.9310  553.2910 C   0  0  0  0  0  0  0  0  0  0  0  0
   45.0950 -409.1720  551.3300 C   0  0  0  0  0  0  0  0  0  0  0  0
   40.9480 -408.6980  550.6850 N   0  0  0  0  0  0  0  0  0  0  0  0
   40.7910 -407.3110  550.2610 C   0  0  2  0  0  0  0  0  0  0  0  0
   39.3070 -407.0170  550.0650 C   0  0  0  0  0  0  0  0  0  0  0  0
   38.6540 -407.6340  549.2160 O   0  0  0  0  0  0  0  0  0  0  0  0
   41.5770 -407.0520  548.9770 C   0  0  0  0  0  0  0  0  0  0  0  0
   43.0710 -407.2760  549.1200 C   0  0  0  0  0  0  0  0  0  0  0  0
   43.6100 -408.1950  548.0330 C   0  0  0  0  0  0  0  0  0  0  0  0
   43.4890 -407.5730  546.6520 C   0  0  0  0  0  0  0  0  0  0  0  0
   44.3290 -406.3540  546.5160 N   0  0  0  0  0  0  0  0  0  0  0  0
   49.2650 -393.4730  553.3940 N   0  0  0  0  0  0  0  0  0  0  0  0
   50.4580 -394.2570  553.1090 C   0  0  2  0  0  0  0  0  0  0  0  0
   50.5510 -395.5250  553.9460 C   0  0  0  0  0  0  0  0  0  0  0  0
   51.2340 -396.4710  553.5360 O   0  0  0  0  0  0  0  0  0  0  0  0
   51.7230 -393.4190  553.3120 C   0  0  0  0  0  0  0  0  0  0  0  0
   52.9410 -394.0180  552.6150 C   0  0  0  0  0  0  0  0  0  0  0  0
   54.1630 -393.1270  552.6740 C   0  0  0  0  0  0  0  0  0  0  0  0
   54.0370 -391.9610  553.1060 O   0  0  0  0  0  0  0  0  0  0  0  0
   55.2520 -393.5970  552.2810 O   0  0  0  0  0  0  0  0  0  0  0  0
   48.2600 -397.5880  554.1270 N   0  0  0  0  0  0  0  0  0  0  0  0
   47.6150 -398.5820  553.2760 C   0  0  2  0  0  0  0  0  0  0  0  0
   48.5870 -399.2290  552.2970 C   0  0  0  0  0  0  0  0  0  0  0  0
   48.3380 -400.3510  551.8430 O   0  0  0  0  0  0  0  0  0  0  0  0
   46.4600 -397.9280  552.5100 C   0  0  0  0  0  0  0  0  0  0  0  0
   45.6460 -398.7740  551.5300 C   0  0  0  0  0  0  0  0  0  0  0  0
   44.8290 -399.7970  552.2860 C   0  0  0  0  0  0  0  0  0  0  0  0
   44.7520 -397.8960  550.6760 C   0  0  0  0  0  0  0  0  0  0  0  0
   49.6800 -398.5500  551.9570 N   0  0  0  0  0  0  0  0  0  0  0  0
   50.6830 -399.0870  551.0510 C   0  0  2  0  0  0  0  0  0  0  0  0
   51.8330 -399.7680  551.7800 C   0  0  0  0  0  0  0  0  0  0  0  0
   52.7120 -400.3410  551.1270 O   0  0  0  0  0  0  0  0  0  0  0  0
   51.2270 -397.9710  550.1540 C   0  0  0  0  0  0  0  0  0  0  0  0
   50.1540 -397.1760  549.4050 C   0  0  0  0  0  0  0  0  0  0  0  0
   50.7770 -396.1520  548.4730 C   0  0  0  0  0  0  0  0  0  0  0  0
   49.2360 -398.1070  548.6350 C   0  0  0  0  0  0  0  0  0  0  0  0
   51.8500 -399.7160  553.1080 N   0  0  0  0  0  0  0  0  0  0  0  0
   52.8840 -400.3360  553.9210 C   0  0  2  0  0  0  0  0  0  0  0  0
   52.2540 -401.2790  554.9370 C   0  0  0  0  0  0  0  0  0  0  0  0
   52.6690 -401.3420  556.0980 O   0  0  0  0  0  0  0  0  0  0  0  0
   53.7360 -399.2800  554.6220 C   0  0  0  0  0  0  0  0  0  0  0  0
   54.5210 -398.4080  553.6890 C   0  0  0  0  0  0  0  0  0  0  0  0
   53.9330 -397.6800  552.6760 N   0  0  0  0  0  0  0  0  0  0  0  0
   55.8470 -398.1430  553.6210 C   0  0  0  0  0  0  0  0  0  0  0  0
   54.8630 -397.0050  552.0240 C   0  0  0  0  0  0  0  0  0  0  0  0
   56.0330 -397.2690  552.5760 N   0  0  0  0  0  0  0  0  0  0  0  0
   51.2200 -402.0080  554.5000 N   0  0  0  0  0  0  0  0  0  0  0  0
   50.4960 -402.9120  555.3930 C   0  0  2  0  0  0  0  0  0  0  0  0
   51.4350 -403.9220  556.0200 C   0  0  0  0  0  0  0  0  0  0  0  0
   51.3710 -404.1860  557.2280 O   0  0  0  0  0  0  0  0  0  0  0  0
   49.3650 -403.6380  554.6490 C   0  0  0  0  0  0  0  0  0  0  0  0
   48.6680 -404.5980  555.6060 C   0  0  0  0  0  0  0  0  0  0  0  0
   48.3980 -402.6460  554.0870 C   0  0  0  0  0  0  0  0  0  0  0  0
   52.2880 -404.5400  555.2060 N   0  0  0  0  0  0  0  0  0  0  0  0
   53.1960 -405.5390  555.7460 C   0  0  2  0  0  0  0  0  0  0  0  0
   54.0130 -404.9490  556.8920 C   0  0  0  0  0  0  0  0  0  0  0  0
   54.0810 -405.5360  557.9780 O   0  0  0  0  0  0  0  0  0  0  0  0
   54.0820 -406.0890  554.6250 C   0  0  0  0  0  0  0  0  0  0  0  0
   53.2820 -406.8680  553.5670 C   0  0  0  0  0  0  0  0  0  0  0  0
   52.6620 -405.9570  552.5030 C   0  0  0  0  0  0  0  0  0  0  0  0
   52.8250 -404.7210  552.6160 O   0  0  0  0  0  0  0  0  0  0  0  0
   52.0210 -406.4740  551.5560 O   0  0  0  0  0  0  0  0  0  0  0  0
   42.0300 -406.2760  554.6070 N   0  0  0  0  0  0  0  0  0  0  0  0
   42.3280 -404.8810  554.2950 C   0  0  2  0  0  0  0  0  0  0  0  0
   41.1170 -404.2820  553.5960 C   0  0  0  0  0  0  0  0  0  0  0  0
   40.7840 -404.6720  552.4700 O   0  0  0  0  0  0  0  0  0  0  0  0
   43.5810 -404.7390  553.4240 C   0  0  2  0  0  0  0  0  0  0  0  0
   44.7710 -405.4120  554.0950 C   0  0  0  0  0  0  0  0  0  0  0  0
   43.8860 -403.2770  553.1690 C   0  0  0  0  0  0  0  0  0  0  0  0
   46.0250 -405.3040  553.2910 C   0  0  0  0  0  0  0  0  0  0  0  0
   40.3100 -400.9450  546.2640 N   0  0  0  0  0  0  0  0  0  0  0  0
   40.1860 -402.3170  545.7950 C   0  0  2  0  0  0  0  0  0  0  0  0
   38.9760 -402.5480  544.9010 C   0  0  0  0  0  0  0  0  0  0  0  0
   38.7680 -403.6800  544.4520 O   0  0  0  0  0  0  0  0  0  0  0  0
   40.1280 -403.2750  546.9870 C   0  0  0  0  0  0  0  0  0  0  0  0
   41.4200 -403.3870  547.7380 C   0  0  0  0  0  0  0  0  0  0  0  0
   42.6310 -403.3200  547.0700 C   0  0  0  0  0  0  0  0  0  0  0  0
   41.4260 -403.5640  549.1110 C   0  0  0  0  0  0  0  0  0  0  0  0
   43.8260 -403.4280  547.7570 C   0  0  0  0  0  0  0  0  0  0  0  0
   42.6170 -403.6720  549.8050 C   0  0  0  0  0  0  0  0  0  0  0  0
   43.8190 -403.6040  549.1270 C   0  0  0  0  0  0  0  0  0  0  0  0
   43.5000 -413.4730  548.8100 N   0  0  0  0  0  0  0  0  0  0  0  0
   44.7650 -413.9230  548.2510 C   0  0  2  0  0  0  0  0  0  0  0  0
   45.6510 -414.3890  549.3970 C   0  0  0  0  0  0  0  0  0  0  0  0
   45.6190 -413.8140  550.4880 O   0  0  0  0  0  0  0  0  0  0  0  0
   45.4410 -412.8060  547.4420 C   0  0  0  0  0  0  0  0  0  0  0  0
   44.6880 -412.4530  546.1590 C   0  0  0  0  0  0  0  0  0  0  0  0
   45.3980 -411.4190  545.3070 C   0  0  0  0  0  0  0  0  0  0  0  0
   46.6210 -411.2480  545.4700 O   0  0  0  0  0  0  0  0  0  0  0  0
   44.7270 -410.7690  544.4750 O   0  0  0  0  0  0  0  0  0  0  0  0
   46.4230 -415.4440  549.1540 N   0  0  0  0  0  0  0  0  0  0  0  0
   47.2190 -416.0500  550.2110 C   0  0  2  0  0  0  0  0  0  0  0  0
   48.4790 -415.2410  550.4770 C   0  0  0  0  0  0  0  0  0  0  0  0
   49.0820 -414.6690  549.5640 O   0  0  0  0  0  0  0  0  0  0  0  0
   47.5960 -417.4850  549.8480 C   0  0  0  0  0  0  0  0  0  0  0  0
   48.8790 -415.2080  551.7410 N   0  0  0  0  0  0  0  0  0  0  0  0
   50.0730 -414.4480  552.1240 C   0  0  2  0  0  0  0  0  0  0  0  0
   51.3110 -415.1450  551.5710 C   0  0  0  0  0  0  0  0  0  0  0  0
   51.4730 -416.3630  551.7670 O   0  0  0  0  0  0  0  0  0  0  0  0
   50.1520 -414.3050  553.6420 C   0  0  2  0  0  0  0  0  0  0  0  0
   48.8570 -413.7090  554.1910 C   0  0  0  0  0  0  0  0  0  0  0  0
   51.3270 -413.4290  554.0260 C   0  0  0  0  0  0  0  0  0  0  0  0
   48.8630 -413.5410  555.6900 C   0  0  0  0  0  0  0  0  0  0  0  0
   52.1900 -414.4310  550.8710 N   0  0  0  0  0  0  0  0  0  0  0  0
   53.4050 -415.0590  550.3440 C   0  0  2  0  0  0  0  0  0  0  0  0
   54.3390 -415.5040  551.4560 C   0  0  0  0  0  0  0  0  0  0  0  0
   54.3610 -414.9350  552.5500 O   0  0  0  0  0  0  0  0  0  0  0  0
   54.0440 -413.9460  549.5030 C   0  0  0  0  0  0  0  0  0  0  0  0
   52.9400 -412.9720  549.2380 C   0  0  0  0  0  0  0  0  0  0  0  0
   52.0560 -413.0340  550.4380 C   0  0  0  0  0  0  0  0  0  0  0  0
   57.4770 -415.1150  551.3740 N   0  0  0  0  0  0  0  0  0  0  0  0
   58.3900 -414.0000  551.6030 C   0  0  2  0  0  0  0  0  0  0  0  0
   57.9240 -413.1560  552.7790 C   0  0  0  0  0  0  0  0  0  0  0  0
   58.7370 -412.6990  553.5890 O   0  0  0  0  0  0  0  0  0  0  0  0
   58.5060 -413.1430  550.3410 C   0  0  0  0  0  0  0  0  0  0  0  0
   56.6120 -412.9640  552.9010 N   0  0  0  0  0  0  0  0  0  0  0  0
   56.0750 -412.1380  553.9750 C   0  0  2  0  0  0  0  0  0  0  0  0
   55.9690 -412.9280  555.2700 C   0  0  0  0  0  0  0  0  0  0  0  0
   56.2680 -412.4140  556.3520 O   0  0  0  0  0  0  0  0  0  0  0  0
   54.7180 -411.5510  553.5470 C   0  0  0  0  0  0  0  0  0  0  0  0
   54.0890 -410.7590  554.6850 C   0  0  0  0  0  0  0  0  0  0  0  0
   54.8940 -410.6770  552.3190 C   0  0  0  0  0  0  0  0  0  0  0  0
   59.5850 -413.9430  557.1120 N   0  0  0  0  0  0  0  0  0  0  0  0
   60.3270 -412.9130  557.7950 C   0  0  2  0  0  0  0  0  0  0  0  0
   59.5450 -412.3250  558.9440 C   0  0  0  0  0  0  0  0  0  0  0  0
   60.1410 -411.6970  559.8270 O   0  0  0  0  0  0  0  0  0  0  0  0
   60.7760 -411.7930  556.8500 C   0  0  0  0  0  0  0  0  0  0  0  0
   59.6220 -411.0420  556.1980 C   0  0  0  0  0  0  0  0  0  0  0  0
   60.2260 -409.9590  555.2740 C   0  0  0  0  0  0  0  0  0  0  0  0
   60.9200 -410.4700  554.0930 C   0  0  0  0  0  0  0  0  0  0  0  0
   61.4670 -409.3520  553.2920 N   0  0  0  0  0  0  0  0  0  0  0  0
   58.2280 -412.3750  558.8970 N   0  0  0  0  0  0  0  0  0  0  0  0
   57.4510 -412.0130  560.0760 C   0  0  2  0  0  0  0  0  0  0  0  0
   57.8190 -412.8810  561.2680 C   0  0  0  0  0  0  0  0  0  0  0  0
   57.8230 -412.4000  562.4020 O   0  0  0  0  0  0  0  0  0  0  0  0
   55.9600 -412.1390  559.7790 C   0  0  0  0  0  0  0  0  0  0  0  0
   55.3250 -410.9710  559.1250 C   0  0  0  0  0  0  0  0  0  0  0  0
   55.8380 -409.7100  559.0130 C   0  0  0  0  0  0  0  0  0  0  0  0
   53.9980 -410.9240  558.6140 C   0  0  0  0  0  0  0  0  0  0  0  0
   54.9080 -408.8940  558.3930 N   0  0  0  0  0  0  0  0  0  0  0  0
   53.7710 -409.6180  558.1470 C   0  0  0  0  0  0  0  0  0  0  0  0
   52.9850 -411.8750  558.4850 C   0  0  0  0  0  0  0  0  0  0  0  0
   52.5760 -409.2380  557.5570 C   0  0  0  0  0  0  0  0  0  0  0  0
   51.8010 -411.5060  557.9050 C   0  0  0  0  0  0  0  0  0  0  0  0
   51.6030 -410.1940  557.4470 C   0  0  0  0  0  0  0  0  0  0  0  0
  2  1  1  6
  3  2  1  0
  4  3  2  0
  5  2  1  0
  6  5  1  0
  7  6  1  0
  8  6  1  0
 10  9  1  6
 11 10  1  0
 12 11  2  0
 13 10  1  0
 14 13  1  0
 15 14  1  0
 16 15  1  0
 17 16  1  0
 19 18  1  1
 20 19  1  0
 21 20  2  0
 22 19  1  0
 23 22  1  0
 24 23  1  0
 25 24  2  0
 26 24  1  0
 28 27  1  6
 29 28  1  0
 30 29  2  0
 31 28  1  0
 32 31  1  0
 33 32  1  0
 34 32  1  0
 35 29  1  0
 36 35  1  0
 37 36  1  0
 38 37  2  0
 36 39  1  1
 40 39  1  0
 41 40  1  0
 42 40  1  0
 43 37  1  0
 44 43  1  0
 45 44  1  0
 46 45  2  0
 44 47  1  1
 48 47  1  0
 49 48  1  0
 50 48  2  0
 51 49  2  0
 52 50  1  0
 52 51  1  0
 53 45  1  0
 54 53  1  6
 55 54  1  0
 56 55  2  0
 57 54  1  0
 58 57  1  0
 59 57  1  0
 60 55  1  0
 61 60  1  0
 62 61  1  0
 63 62  2  0
 61 64  1  6
 65 64  1  0
 66 65  1  0
 67 66  2  0
 68 66  1  0
 70 69  1  6
 71 70  1  0
 72 71  2  0
 73 70  1  0
 74 73  1  0
 73 75  1  1
 76 74  1  0
 78 77  1  1
 79 78  1  0
 80 79  2  0
 81 78  1  0
 82 81  1  0
 83 82  2  0
 84 82  1  0
 85 83  1  0
 86 84  2  0
 87 86  1  0
 87 85  2  0
 89 88  1  1
 90 89  1  0
 91 90  2  0
 92 89  1  0
 93 92  1  0
 94 93  1  0
 95 94  2  0
 96 94  1  0
 97 90  1  0
 98 97  1  0
 99 98  1  0
100 99  2  0
 98101  1  6
102 99  1  0
103102  1  1
104103  1  0
105104  2  0
106103  1  0
107106  1  0
106108  1  6
109107  1  0
110104  1  0
111110  1  0
111112  1  1
113112  2  0
114111  1  0
115114  1  0
116110  1  0
116115  1  0
118117  1  0
119118  1  0
120119  2  0
118121  1  6
122119  1  0
123122  1  6
124123  1  0
125124  2  0
126123  1  0
127126  1  0
128126  1  0
130129  1  6
131130  1  0
132131  2  0
133130  1  0
134133  1  0
135134  1  0
136135  1  0
137136  1  0
138131  1  0
139138  1  0
140139  1  0
141140  2  0
139142  1  6
143142  1  0
144143  2  0
145143  1  0
146144  1  0
147145  2  0
147146  1  0
148145  1  0
149147  1  0
150148  2  0
151150  1  0
151149  2  0
M  END
$$$$
