
     RDKit          3D

122120  0  0  0  0  0  0  0  0999 V2000
   28.8450   40.7410    7.9660 N   0  0  0  0  0  0  0  0  0  0  0  0
   29.0620   41.8580    7.0470 C   0  0  2  0  0  0  0  0  0  0  0  0
   28.1200   43.0270    7.3490 C   0  0  0  0  0  0  0  0  0  0  0  0
   28.5290   43.9880    8.0070 O   0  0  0  0  0  0  0  0  0  0  0  0
   28.9770   41.4210    5.5680 C   0  0  2  0  0  0  0  0  0  0  0  0
   27.6860   40.8610    5.2980 O   0  0  0  0  0  0  0  0  0  0  0  0
   30.0510   40.3890    5.2440 C   0  0  0  0  0  0  0  0  0  0  0  0
   26.8740   42.9450    6.8790 N   0  0  0  0  0  0  0  0  0  0  0  0
   25.8590   43.9530    7.2030 C   0  0  2  0  0  0  0  0  0  0  0  0
   24.7350   43.3760    8.0490 C   0  0  0  0  0  0  0  0  0  0  0  0
   24.3610   42.2040    7.9010 O   0  0  0  0  0  0  0  0  0  0  0  0
   25.2460   44.6440    5.9610 C   0  0  2  0  0  0  0  0  0  0  0  0
   24.5990   43.6760    5.1260 O   0  0  0  0  0  0  0  0  0  0  0  0
   26.3080   45.3850    5.1680 C   0  0  0  0  0  0  0  0  0  0  0  0
   24.2280   44.2160    8.9480 N   0  0  0  0  0  0  0  0  0  0  0  0
   23.0100   43.9410    9.6990 C   0  0  2  0  0  0  0  0  0  0  0  0
   21.8580   44.7040    9.0370 C   0  0  0  0  0  0  0  0  0  0  0  0
   22.0310   45.8370    8.5820 O   0  0  0  0  0  0  0  0  0  0  0  0
   23.1830   44.2430   11.2130 C   0  0  2  0  0  0  0  0  0  0  0  0
   22.0190   43.6560   12.0280 C   0  0  0  0  0  0  0  0  0  0  0  0
   23.4080   45.7320   11.4770 C   0  0  0  0  0  0  0  0  0  0  0  0
   22.3560   43.3490   13.4730 C   0  0  0  0  0  0  0  0  0  0  0  0
   20.6970   44.0600    8.9580 N   0  0  0  0  0  0  0  0  0  0  0  0
   19.5570   44.6050    8.2290 C   0  0  2  0  0  0  0  0  0  0  0  0
   18.2450   44.5180    9.0050 C   0  0  0  0  0  0  0  0  0  0  0  0
   17.9700   43.5180    9.6790 O   0  0  0  0  0  0  0  0  0  0  0  0
   19.3950   43.8900    6.8840 C   0  0  0  0  0  0  0  0  0  0  0  0
   20.4380   44.2290    5.8310 C   0  0  0  0  0  0  0  0  0  0  0  0
   20.2720   43.4050    4.5700 C   0  0  0  0  0  0  0  0  0  0  0  0
   20.3900   42.1780    4.5950 O   0  0  0  0  0  0  0  0  0  0  0  0
   19.9990   44.0770    3.4550 N   0  0  0  0  0  0  0  0  0  0  0  0
   17.4510   45.5840    8.9050 N   0  0  0  0  0  0  0  0  0  0  0  0
   16.0560   45.5840    9.3290 C   0  0  2  0  0  0  0  0  0  0  0  0
   15.2280   45.4900    8.0540 C   0  0  0  0  0  0  0  0  0  0  0  0
   15.2080   46.4230    7.2440 O   0  0  0  0  0  0  0  0  0  0  0  0
   15.7350   46.8620   10.1220 C   0  0  0  0  0  0  0  0  0  0  0  0
   14.2540   47.0070   10.4870 C   0  0  0  0  0  0  0  0  0  0  0  0
   13.3980   46.1990   10.1120 O   0  0  0  0  0  0  0  0  0  0  0  0
   13.9500   48.0640   11.2270 N   0  0  0  0  0  0  0  0  0  0  0  0
   14.5460   44.3590    7.8860 N   0  0  0  0  0  0  0  0  0  0  0  0
   13.7950   44.0790    6.6570 C   0  0  2  0  0  0  0  0  0  0  0  0
   12.3800   44.6660    6.6880 C   0  0  0  0  0  0  0  0  0  0  0  0
   11.6350   44.5710    5.7050 O   0  0  0  0  0  0  0  0  0  0  0  0
   13.7340   42.5640    6.3510 C   0  0  2  0  0  0  0  0  0  0  0  0
   13.1070   41.8740    7.4390 O   0  0  0  0  0  0  0  0  0  0  0  0
   15.1350   41.9920    6.1180 C   0  0  0  0  0  0  0  0  0  0  0  0
   12.0280   45.2820    7.8160 N   0  0  0  0  0  0  0  0  0  0  0  0
   10.6600   45.7250    8.0830 C   0  0  0  0  0  0  0  0  0  0  0  0
    9.8500   44.6260    8.7500 C   0  0  0  0  0  0  0  0  0  0  0  0
    8.7760   44.8810    9.3000 O   0  0  0  0  0  0  0  0  0  0  0  0
   18.1460   40.7650   10.1420 N   0  0  0  0  0  0  0  0  0  0  0  0
   18.9740   39.8520    9.3560 C   0  0  2  0  0  0  0  0  0  0  0  0
   20.4520   40.2120    9.4650 C   0  0  0  0  0  0  0  0  0  0  0  0
   20.8260   41.3730    9.2680 O   0  0  0  0  0  0  0  0  0  0  0  0
   18.5290   39.8420    7.8890 C   0  0  0  0  0  0  0  0  0  0  0  0
   19.2010   38.7690    7.0380 C   0  0  0  0  0  0  0  0  0  0  0  0
   18.5280   38.6020    5.6840 C   0  0  0  0  0  0  0  0  0  0  0  0
   18.7460   39.7560    4.8120 N   0  0  0  0  0  0  0  0  0  0  0  0
   18.2140   39.9140    3.6020 C   0  0  0  0  0  0  0  0  0  0  0  0
   17.4170   38.9870    3.0770 N   0  0  0  0  0  0  0  0  0  0  0  0
   18.4860   41.0110    2.9100 N   0  0  0  0  0  0  0  0  0  0  0  0
   23.9950   39.2350    7.7270 N   0  0  0  0  0  0  0  0  0  0  0  0
   24.6270   38.6030    6.5700 C   0  0  2  0  0  0  0  0  0  0  0  0
   26.0650   38.1860    6.8840 C   0  0  0  0  0  0  0  0  0  0  0  0
   26.7930   38.9090    7.5700 O   0  0  0  0  0  0  0  0  0  0  0  0
   24.5900   39.5510    5.3720 C   0  0  0  0  0  0  0  0  0  0  0  0
   23.1900   40.0570    5.0660 C   0  0  0  0  0  0  0  0  0  0  0  0
   22.3000   39.2880    4.7000 O   0  0  0  0  0  0  0  0  0  0  0  0
   22.9920   41.3620    5.2070 N   0  0  0  0  0  0  0  0  0  0  0  0
   26.4640   37.0210    6.3750 N   0  0  0  0  0  0  0  0  0  0  0  0
   27.7760   36.4410    6.6680 C   0  0  2  0  0  0  0  0  0  0  0  0
   28.5930   36.0810    5.4280 C   0  0  0  0  0  0  0  0  0  0  0  0
   28.0440   35.6170    4.4210 O   0  0  0  0  0  0  0  0  0  0  0  0
   27.6170   35.1840    7.5270 C   0  0  0  0  0  0  0  0  0  0  0  0
   27.2560   35.4570    8.9610 C   0  0  0  0  0  0  0  0  0  0  0  0
   25.9170   35.5200    9.3610 C   0  0  0  0  0  0  0  0  0  0  0  0
   28.2540   35.6280    9.9260 C   0  0  0  0  0  0  0  0  0  0  0  0
   25.5810   35.7630   10.6900 C   0  0  0  0  0  0  0  0  0  0  0  0
   27.9220   35.8730   11.2560 C   0  0  0  0  0  0  0  0  0  0  0  0
   26.5840   35.9400   11.6370 C   0  0  0  0  0  0  0  0  0  0  0  0
   29.9040   36.3100    5.5180 N   0  0  0  0  0  0  0  0  0  0  0  0
   30.8860   35.7140    4.6140 C   0  0  2  0  0  0  0  0  0  0  0  0
   31.6260   34.6060    5.3380 C   0  0  0  0  0  0  0  0  0  0  0  0
   32.0860   34.7930    6.4680 O   0  0  0  0  0  0  0  0  0  0  0  0
   31.8820   36.7550    4.1010 C   0  0  0  0  0  0  0  0  0  0  0  0
   31.7380   37.0950    2.6250 C   0  0  0  0  0  0  0  0  0  0  0  0
   30.5780   38.0480    2.3760 C   0  0  0  0  0  0  0  0  0  0  0  0
   30.9050   39.0410    1.2760 C   0  0  0  0  0  0  0  0  0  0  0  0
   30.4180   40.3940    1.6570 N   0  0  0  0  0  0  0  0  0  0  0  0
   13.8590   48.7730    6.1200 N   0  0  0  0  0  0  0  0  0  0  0  0
   14.6750   48.5740    4.9060 C   0  0  2  0  0  0  0  0  0  0  0  0
   16.0420   49.2660    5.0150 C   0  0  0  0  0  0  0  0  0  0  0  0
   16.4490   50.0380    4.1380 O   0  0  0  0  0  0  0  0  0  0  0  0
   13.9100   48.9920    3.6360 C   0  0  0  0  0  0  0  0  0  0  0  0
   12.5490   48.3240    3.5160 C   0  0  0  0  0  0  0  0  0  0  0  0
   12.4360   47.0980    3.5250 O   0  0  0  0  0  0  0  0  0  0  0  0
   11.5060   49.1360    3.3850 N   0  0  0  0  0  0  0  0  0  0  0  0
   16.7350   48.9730    6.1120 N   0  0  0  0  0  0  0  0  0  0  0  0
   17.9590   49.6650    6.4720 C   0  0  2  0  0  0  0  0  0  0  0  0
   19.0790   48.6680    6.7290 C   0  0  0  0  0  0  0  0  0  0  0  0
   18.9800   47.8120    7.6120 O   0  0  0  0  0  0  0  0  0  0  0  0
   17.7330   50.5710    7.7030 C   0  0  2  0  0  0  0  0  0  0  0  0
   16.6240   51.4430    7.4490 O   0  0  0  0  0  0  0  0  0  0  0  0
   18.9810   51.4020    8.0370 C   0  0  0  0  0  0  0  0  0  0  0  0
   20.1320   48.7920    5.9260 N   0  0  0  0  0  0  0  0  0  0  0  0
   21.3550   48.0160    6.0810 C   0  0  2  0  0  0  0  0  0  0  0  0
   22.3930   48.8950    6.7600 C   0  0  0  0  0  0  0  0  0  0  0  0
   22.3490   50.1150    6.6270 O   0  0  0  0  0  0  0  0  0  0  0  0
   21.8670   47.5560    4.7180 C   0  0  0  0  0  0  0  0  0  0  0  0
   20.8320   46.9720    3.9440 O   0  0  0  0  0  0  0  0  0  0  0  0
   23.3080   48.2730    7.5010 N   0  0  0  0  0  0  0  0  0  0  0  0
   24.3820   48.9830    8.2000 C   0  0  2  0  0  0  0  0  0  0  0  0
   25.5500   48.0350    8.4470 C   0  0  0  0  0  0  0  0  0  0  0  0
   25.3220   46.8590    8.7500 O   0  0  0  0  0  0  0  0  0  0  0  0
   23.8820   49.5590    9.5180 C   0  0  0  0  0  0  0  0  0  0  0  0
   26.8030   48.5320    8.3190 N   0  0  0  0  0  0  0  0  0  0  0  0
   27.9540   47.6560    8.5390 C   0  0  2  0  0  0  0  0  0  0  0  0
   28.0500   47.2190    9.9970 C   0  0  0  0  0  0  0  0  0  0  0  0
   28.1240   48.0640   10.8960 O   0  0  0  0  0  0  0  0  0  0  0  0
   29.1520   48.5340    8.1450 C   0  0  0  0  0  0  0  0  0  0  0  0
   28.5810   49.6230    7.3010 C   0  0  0  0  0  0  0  0  0  0  0  0
   27.2300   49.8790    7.8930 C   0  0  0  0  0  0  0  0  0  0  0  0
  2  1  1  1
  3  2  1  0
  4  3  2  0
  5  2  1  0
  6  5  1  0
  5  7  1  1
  8  3  1  0
  9  8  1  6
 10  9  1  0
 11 10  2  0
 12  9  1  0
 13 12  1  0
 12 14  1  6
 15 10  1  0
 16 15  1  6
 17 16  1  0
 18 17  2  0
 19 16  1  0
 20 19  1  0
 19 21  1  6
 22 20  1  0
 23 17  1  0
 24 23  1  0
 25 24  1  0
 26 25  2  0
 24 27  1  6
 28 27  1  0
 29 28  1  0
 30 29  2  0
 31 29  1  0
 32 25  1  0
 33 32  1  0
 34 33  1  0
 35 34  2  0
 33 36  1  6
 37 36  1  0
 38 37  2  0
 39 37  1  0
 40 34  1  0
 41 40  1  1
 42 41  1  0
 43 42  2  0
 44 41  1  0
 45 44  1  0
 44 46  1  1
 47 42  1  0
 48 47  1  0
 49 48  1  0
 50 49  2  0
 52 51  1  1
 53 52  1  0
 54 53  2  0
 55 52  1  0
 56 55  1  0
 57 56  1  0
 58 57  1  0
 59 58  1  0
 60 59  1  0
 61 59  2  0
 63 62  1  1
 64 63  1  0
 65 64  2  0
 66 63  1  0
 67 66  1  0
 68 67  2  0
 69 67  1  0
 70 64  1  0
 71 70  1  0
 72 71  1  0
 73 72  2  0
 71 74  1  6
 75 74  1  0
 76 75  2  0
 77 75  1  0
 78 76  1  0
 79 77  2  0
 80 78  2  0
 80 79  1  0
 81 72  1  0
 82 81  1  0
 83 82  1  0
 84 83  2  0
 82 85  1  1
 86 85  1  0
 87 86  1  0
 88 87  1  0
 89 88  1  0
 91 90  1  1
 92 91  1  0
 93 92  2  0
 94 91  1  0
 95 94  1  0
 96 95  2  0
 97 95  1  0
 98 92  1  0
 99 98  1  1
100 99  1  0
101100  2  0
102 99  1  0
103102  1  0
102104  1  6
105100  1  0
106105  1  0
107106  1  0
108107  2  0
106109  1  6
110109  1  0
111107  1  0
112111  1  0
113112  1  0
114113  2  0
112115  1  1
116113  1  0
117116  1  0
117118  1  1
119118  2  0
120117  1  0
121120  1  0
122116  1  0
122121  1  0
M  END
$$$$
