
     RDKit          3D

123117  0  0  0  0  0  0  0  0999 V2000
  188.6060  205.2340  149.3020 N   0  0  0  0  0  0  0  0  0  0  0  0
  188.8810  203.8630  149.6360 C   0  0  2  0  0  0  0  0  0  0  0  0
  190.0110  203.3180  148.8160 C   0  0  0  0  0  0  0  0  0  0  0  0
  190.1970  203.6740  147.6520 O   0  0  0  0  0  0  0  0  0  0  0  0
  187.6780  202.9960  149.3940 C   0  0  0  0  0  0  0  0  0  0  0  0
  188.0250  201.6450  149.5450 O   0  0  0  0  0  0  0  0  0  0  0  0
  190.7470  202.4090  149.4310 N   0  0  0  0  0  0  0  0  0  0  0  0
  191.8840  201.7680  148.8060 C   0  0  2  0  0  0  0  0  0  0  0  0
  191.4840  200.5910  147.9200 C   0  0  0  0  0  0  0  0  0  0  0  0
  192.3490  199.9080  147.3740 O   0  0  0  0  0  0  0  0  0  0  0  0
  192.8850  201.3530  149.8520 C   0  0  0  0  0  0  0  0  0  0  0  0
  192.3650  200.3930  150.7220 O   0  0  0  0  0  0  0  0  0  0  0  0
  190.1830  200.3730  147.7380 N   0  0  0  0  0  0  0  0  0  0  0  0
  189.7370  199.2940  146.8820 C   0  0  0  0  0  0  0  0  0  0  0  0
  189.6960  197.9590  147.5860 C   0  0  0  0  0  0  0  0  0  0  0  0
  189.3370  197.8790  148.7600 O   0  0  0  0  0  0  0  0  0  0  0  0
  190.0090  196.8980  146.8580 N   0  0  0  0  0  0  0  0  0  0  0  0
  189.7760  195.5760  147.3920 C   0  0  0  0  0  0  0  0  0  0  0  0
  188.3520  195.2000  147.0150 C   0  0  0  0  0  0  0  0  0  0  0  0
  187.7490  195.8500  146.1610 O   0  0  0  0  0  0  0  0  0  0  0  0
  187.8410  194.1230  147.5790 N   0  0  0  0  0  0  0  0  0  0  0  0
  186.5210  193.6310  147.2120 C   0  0  2  0  0  0  0  0  0  0  0  0
  185.4420  194.6700  147.4350 C   0  0  0  0  0  0  0  0  0  0  0  0
  185.4670  195.3960  148.4270 O   0  0  0  0  0  0  0  0  0  0  0  0
  186.1650  192.3890  148.0070 C   0  0  0  0  0  0  0  0  0  0  0  0
  184.9400  191.6830  147.4560 C   0  0  0  0  0  0  0  0  0  0  0  0
  183.8430  192.1610  147.6380 O   0  0  0  0  0  0  0  0  0  0  0  0
  185.1200  190.6520  146.8520 O   0  0  0  0  0  0  0  0  0  0  0  0
  184.4970  194.7290  146.5040 N   0  0  0  0  0  0  0  0  0  0  0  0
  183.3970  195.6810  146.5370 C   0  0  2  0  0  0  0  0  0  0  0  0
  182.6410  195.7240  147.8380 C   0  0  0  0  0  0  0  0  0  0  0  0
  182.1640  196.7840  148.2570 O   0  0  0  0  0  0  0  0  0  0  0  0
  182.3770  195.3330  145.4710 C   0  0  0  0  0  0  0  0  0  0  0  0
  181.1630  196.2530  145.4570 C   0  0  0  0  0  0  0  0  0  0  0  0
  181.6260  197.6620  145.1580 C   0  0  0  0  0  0  0  0  0  0  0  0
  180.1570  195.7630  144.4320 C   0  0  0  0  0  0  0  0  0  0  0  0
  183.6680  195.7160  150.7220 N   0  0  0  0  0  0  0  0  0  0  0  0
  184.2380  196.6190  151.6980 C   0  0  2  0  0  0  0  0  0  0  0  0
  184.6330  197.9250  151.0450 C   0  0  0  0  0  0  0  0  0  0  0  0
  184.7560  198.9490  151.7220 O   0  0  0  0  0  0  0  0  0  0  0  0
  185.4510  195.9890  152.3900 C   0  0  0  0  0  0  0  0  0  0  0  0
  185.0190  194.7460  153.1460 C   0  0  0  0  0  0  0  0  0  0  0  0
  186.5180  195.6360  151.3660 C   0  0  0  0  0  0  0  0  0  0  0  0
  184.7760  197.9050  149.7170 N   0  0  0  0  0  0  0  0  0  0  0  0
  185.1030  199.1070  148.9760 C   0  0  2  0  0  0  0  0  0  0  0  0
  184.0080  200.1220  149.0590 C   0  0  0  0  0  0  0  0  0  0  0  0
  184.2650  201.3240  149.0120 O   0  0  0  0  0  0  0  0  0  0  0  0
  185.3530  198.8130  147.5040 C   0  0  2  0  0  0  0  0  0  0  0  0
  186.4510  197.9090  147.3690 O   0  0  0  0  0  0  0  0  0  0  0  0
  185.6650  200.0980  146.7690 C   0  0  0  0  0  0  0  0  0  0  0  0
  181.6610  186.2020  154.5260 N   0  0  0  0  0  0  0  0  0  0  0  0
  182.8530  185.8540  153.7910 C   0  0  2  0  0  0  0  0  0  0  0  0
  182.7050  184.5180  153.0940 C   0  0  0  0  0  0  0  0  0  0  0  0
  183.6440  184.0470  152.4490 O   0  0  0  0  0  0  0  0  0  0  0  0
  184.0510  185.8330  154.7280 C   0  0  0  0  0  0  0  0  0  0  0  0
  184.3020  187.1660  155.3990 C   0  0  0  0  0  0  0  0  0  0  0  0
  184.5430  188.2690  154.3930 C   0  0  0  0  0  0  0  0  0  0  0  0
  185.4130  188.1610  153.5280 O   0  0  0  0  0  0  0  0  0  0  0  0
  183.7600  189.3370  154.4970 N   0  0  0  0  0  0  0  0  0  0  0  0
  190.2540  202.4760  159.3870 N   0  0  0  0  0  0  0  0  0  0  0  0
  191.5820  201.8990  159.4730 C   0  0  2  0  0  0  0  0  0  0  0  0
  192.6030  202.9900  159.2580 C   0  0  0  0  0  0  0  0  0  0  0  0
  192.2860  204.0490  158.7180 O   0  0  0  0  0  0  0  0  0  0  0  0
  191.7980  200.7940  158.4380 C   0  0  2  0  0  0  0  0  0  0  0  0
  191.7170  201.3590  157.1250 O   0  0  0  0  0  0  0  0  0  0  0  0
  190.7580  199.6960  158.5900 C   0  0  0  0  0  0  0  0  0  0  0  0
  196.5990  204.0250  157.8600 N   0  0  0  0  0  0  0  0  0  0  0  0
  197.7530  203.6130  157.0680 C   0  0  2  0  0  0  0  0  0  0  0  0
  199.0210  203.4520  157.8810 C   0  0  0  0  0  0  0  0  0  0  0  0
  199.3670  204.3060  158.6960 O   0  0  0  0  0  0  0  0  0  0  0  0
  197.9970  204.5500  155.9020 C   0  0  0  0  0  0  0  0  0  0  0  0
  196.9720  204.3280  154.7980 C   0  0  0  0  0  0  0  0  0  0  0  0
  196.2450  203.3660  154.8880 O   0  0  0  0  0  0  0  0  0  0  0  0
  196.9360  205.0910  153.8600 O   0  0  0  0  0  0  0  0  0  0  0  0
  190.7370  205.5980  156.5040 N   0  0  0  0  0  0  0  0  0  0  0  0
  189.7840  205.1390  155.5270 C   0  0  2  0  0  0  0  0  0  0  0  0
  188.7510  204.2770  156.1740 C   0  0  0  0  0  0  0  0  0  0  0  0
  188.9840  203.7430  157.2530 O   0  0  0  0  0  0  0  0  0  0  0  0
  190.4350  204.3310  154.4350 C   0  0  0  0  0  0  0  0  0  0  0  0
  191.3060  205.0760  153.4710 C   0  0  0  0  0  0  0  0  0  0  0  0
  191.7760  204.1370  152.4440 C   0  0  0  0  0  0  0  0  0  0  0  0
  192.5160  204.7910  151.4010 N   0  0  0  0  0  0  0  0  0  0  0  0
  193.8380  205.0090  151.4400 C   0  0  0  0  0  0  0  0  0  0  0  0
  194.5240  204.6130  152.4880 N   0  0  0  0  0  0  0  0  0  0  0  0
  194.4300  205.6140  150.4290 N   0  0  0  0  0  0  0  0  0  0  0  0
  187.5930  204.1320  155.5530 N   0  0  0  0  0  0  0  0  0  0  0  0
  186.5590  203.2090  155.9200 C   0  0  2  0  0  0  0  0  0  0  0  0
  187.1920  201.8490  155.7300 C   0  0  0  0  0  0  0  0  0  0  0  0
  188.0780  201.6930  154.8890 O   0  0  0  0  0  0  0  0  0  0  0  0
  185.4210  203.5100  154.9530 C   0  0  0  0  0  0  0  0  0  0  0  0
  186.0740  204.2040  153.8040 C   0  0  0  0  0  0  0  0  0  0  0  0
  187.1890  204.9940  154.4300 C   0  0  0  0  0  0  0  0  0  0  0  0
  186.7450  200.8600  156.4720 N   0  0  0  0  0  0  0  0  0  0  0  0
  187.4420  199.5800  156.4360 C   0  0  0  0  0  0  0  0  0  0  0  0
  186.7640  198.5450  157.2980 C   0  0  0  0  0  0  0  0  0  0  0  0
  185.6330  198.7470  157.7350 O   0  0  0  0  0  0  0  0  0  0  0  0
  187.4230  197.4050  157.4980 N   0  0  0  0  0  0  0  0  0  0  0  0
  186.7890  196.3390  158.2490 C   0  0  0  0  0  0  0  0  0  0  0  0
  185.7160  195.6650  157.4240 C   0  0  0  0  0  0  0  0  0  0  0  0
  185.9940  195.1470  156.3440 O   0  0  0  0  0  0  0  0  0  0  0  0
  184.5070  195.6180  157.9460 N   0  0  0  0  0  0  0  0  0  0  0  0
  183.4410  194.8820  157.2960 C   0  0  0  0  0  0  0  0  0  0  0  0
  183.2900  193.4630  157.8400 C   0  0  0  0  0  0  0  0  0  0  0  0
  182.3750  192.7460  157.4400 O   0  0  0  0  0  0  0  0  0  0  0  0
  184.1550  193.0410  158.7570 N   0  0  0  0  0  0  0  0  0  0  0  0
  183.8380  191.8030  159.4440 C   0  0  2  0  0  0  0  0  0  0  0  0
  182.6800  192.1380  160.3450 C   0  0  0  0  0  0  0  0  0  0  0  0
  182.7820  193.0490  161.1670 O   0  0  0  0  0  0  0  0  0  0  0  0
  184.9920  191.2480  160.2750 C   0  0  0  0  0  0  0  0  0  0  0  0
  184.6300  189.9100  160.9310 C   0  0  0  0  0  0  0  0  0  0  0  0
  183.4620  189.6260  161.0320 O   0  0  0  0  0  0  0  0  0  0  0  0
  185.5110  189.1900  161.3390 O   0  0  0  0  0  0  0  0  0  0  0  0
  181.6700  190.8470  162.8930 N   0  0  0  0  0  0  0  0  0  0  0  0
  181.9840  190.7340  164.2900 C   0  0  2  0  0  0  0  0  0  0  0  0
  182.1880  192.0710  164.9500 C   0  0  0  0  0  0  0  0  0  0  0  0
  181.8440  192.2350  166.1190 O   0  0  0  0  0  0  0  0  0  0  0  0
  183.2230  189.9150  164.4780 C   0  0  0  0  0  0  0  0  0  0  0  0
  183.0460  188.4510  164.1920 C   0  0  0  0  0  0  0  0  0  0  0  0
  184.2930  187.7190  164.4520 C   0  0  0  0  0  0  0  0  0  0  0  0
  184.1120  186.3010  164.2770 N   0  0  0  0  0  0  0  0  0  0  0  0
  184.3110  185.6390  163.1280 C   0  0  0  0  0  0  0  0  0  0  0  0
  184.7030  186.2770  162.0420 N   0  0  0  0  0  0  0  0  0  0  0  0
  184.1070  184.3320  163.1020 N   0  0  0  0  0  0  0  0  0  0  0  0
  2  1  1  6
  3  2  1  0
  4  3  2  0
  5  2  1  0
  6  5  1  0
  7  3  1  0
  8  7  1  0
  9  8  1  0
 10  9  2  0
  8 11  1  1
 12 11  1  0
 13  9  1  0
 14 13  1  0
 15 14  1  0
 16 15  2  0
 17 15  1  0
 18 17  1  0
 19 18  1  0
 20 19  2  0
 21 19  1  0
 22 21  1  0
 23 22  1  0
 24 23  2  0
 22 25  1  1
 26 25  1  0
 27 26  2  0
 28 26  1  0
 29 23  1  0
 30 29  1  0
 31 30  1  0
 32 31  2  0
 30 33  1  6
 34 33  1  0
 35 34  1  0
 36 34  1  0
 38 37  1  6
 39 38  1  0
 40 39  2  0
 41 38  1  0
 42 41  1  0
 43 41  1  0
 44 39  1  0
 45 44  1  1
 46 45  1  0
 47 46  2  0
 48 45  1  0
 49 48  1  0
 48 50  1  6
 52 51  1  1
 53 52  1  0
 54 53  2  0
 55 52  1  0
 56 55  1  0
 57 56  1  0
 58 57  2  0
 59 57  1  0
 61 60  1  6
 62 61  1  0
 63 62  2  0
 64 61  1  0
 65 64  1  0
 64 66  1  6
 68 67  1  1
 69 68  1  0
 70 69  2  0
 71 68  1  0
 72 71  1  0
 73 72  2  0
 74 72  1  0
 76 75  1  1
 77 76  1  0
 78 77  2  0
 79 76  1  0
 80 79  1  0
 81 80  1  0
 82 81  1  0
 83 82  1  0
 84 83  1  0
 85 83  2  0
 86 77  1  0
 87 86  1  0
 87 88  1  6
 89 88  2  0
 90 87  1  0
 91 90  1  0
 92 91  1  0
 92 86  1  0
 93 88  1  0
 94 93  1  0
 95 94  1  0
 96 95  2  0
 97 95  1  0
 98 97  1  0
 99 98  1  0
100 99  2  0
101 99  1  0
102101  1  0
103102  1  0
104103  2  0
105103  1  0
106105  1  0
107106  1  0
108107  2  0
106109  1  1
110109  1  0
111110  2  0
112110  1  0
114113  1  6
115114  1  0
116115  2  0
117114  1  0
118117  1  0
119118  1  0
120119  1  0
121120  1  0
122121  1  0
123121  2  0
M  END
$$$$
