
     RDKit          3D

139139  0  0  0  0  0  0  0  0999 V2000
   53.9600   27.2560   41.5520 N   0  0  0  0  0  0  0  0  0  0  0  0
   55.0240   27.0650   40.5740 C   0  0  2  0  0  0  0  0  0  0  0  0
   55.7090   25.7420   40.8710 C   0  0  0  0  0  0  0  0  0  0  0  0
   56.2160   25.5410   41.9790 O   0  0  0  0  0  0  0  0  0  0  0  0
   56.0260   28.2240   40.6110 C   0  0  0  0  0  0  0  0  0  0  0  0
   57.2570   27.9860   39.7950 C   0  0  0  0  0  0  0  0  0  0  0  0
   57.2370   27.8920   38.4200 N   0  0  0  0  0  0  0  0  0  0  0  0
   58.5510   27.8330   40.1630 C   0  0  0  0  0  0  0  0  0  0  0  0
   58.4650   27.6860   37.9770 C   0  0  0  0  0  0  0  0  0  0  0  0
   59.2810   27.6470   39.0150 N   0  0  0  0  0  0  0  0  0  0  0  0
   55.6850   24.8270   39.9080 N   0  0  0  0  0  0  0  0  0  0  0  0
   56.3360   23.5340   40.0900 C   0  0  2  0  0  0  0  0  0  0  0  0
   57.8140   23.6440   39.7380 C   0  0  0  0  0  0  0  0  0  0  0  0
   58.1840   24.1950   38.6950 O   0  0  0  0  0  0  0  0  0  0  0  0
   55.6350   22.4490   39.2580 C   0  0  2  0  0  0  0  0  0  0  0  0
   54.2110   22.2340   39.7760 C   0  0  0  0  0  0  0  0  0  0  0  0
   56.4200   21.1430   39.3070 C   0  0  0  0  0  0  0  0  0  0  0  0
   53.3870   21.2840   38.9330 C   0  0  0  0  0  0  0  0  0  0  0  0
   58.6600   23.1150   40.6160 N   0  0  0  0  0  0  0  0  0  0  0  0
   60.0980   22.9990   40.4160 C   0  0  2  0  0  0  0  0  0  0  0  0
   60.4100   21.5080   40.3120 C   0  0  0  0  0  0  0  0  0  0  0  0
   60.2210   20.7560   41.2780 O   0  0  0  0  0  0  0  0  0  0  0  0
   60.8610   23.6380   41.5750 C   0  0  0  0  0  0  0  0  0  0  0  0
   60.0670   24.6920   42.3330 C   0  0  0  0  0  0  0  0  0  0  0  0
   60.9000   25.4280   43.3640 C   0  0  0  0  0  0  0  0  0  0  0  0
   62.0560   25.0820   43.6060 O   0  0  0  0  0  0  0  0  0  0  0  0
   60.3090   26.4380   43.9920 N   0  0  0  0  0  0  0  0  0  0  0  0
   60.8400   21.0710   39.1360 N   0  0  0  0  0  0  0  0  0  0  0  0
   61.2280   19.6890   38.9190 C   0  0  2  0  0  0  0  0  0  0  0  0
   62.7150   19.5850   38.6080 C   0  0  0  0  0  0  0  0  0  0  0  0
   63.3300   20.5440   38.1290 O   0  0  0  0  0  0  0  0  0  0  0  0
   60.4050   19.0360   37.8010 C   0  0  0  0  0  0  0  0  0  0  0  0
   60.1610   19.6820   36.4460 C   0  0  0  0  0  0  0  0  0  0  0  0
   61.1570   19.1780   35.4260 C   0  0  0  0  0  0  0  0  0  0  0  0
   58.7640   19.3120   36.0430 C   0  0  0  0  0  0  0  0  0  0  0  0
   63.3280   18.4390   38.8900 N   0  0  0  0  0  0  0  0  0  0  0  0
   64.7090   18.2020   38.4540 C   0  0  2  0  0  0  0  0  0  0  0  0
   64.8370   18.3360   36.9480 C   0  0  0  0  0  0  0  0  0  0  0  0
   63.9490   17.9090   36.1960 O   0  0  0  0  0  0  0  0  0  0  0  0
   64.9830   16.7610   38.9070 C   0  0  0  0  0  0  0  0  0  0  0  0
   63.9740   16.4870   39.9710 C   0  0  0  0  0  0  0  0  0  0  0  0
   62.7680   17.2960   39.6310 C   0  0  0  0  0  0  0  0  0  0  0  0
   65.9330   18.9320   36.4730 N   0  0  0  0  0  0  0  0  0  0  0  0
   66.2070   18.9350   35.0260 C   0  0  2  0  0  0  0  0  0  0  0  0
   66.3800   17.5480   34.4360 C   0  0  0  0  0  0  0  0  0  0  0  0
   66.3390   17.4070   33.2070 O   0  0  0  0  0  0  0  0  0  0  0  0
   67.4910   19.7660   34.9160 C   0  0  0  0  0  0  0  0  0  0  0  0
   68.1760   19.5550   36.2200 C   0  0  0  0  0  0  0  0  0  0  0  0
   67.0790   19.4290   37.2550 C   0  0  0  0  0  0  0  0  0  0  0  0
   56.5350    9.6350   31.1650 N   0  0  0  0  0  0  0  0  0  0  0  0
   56.9880   10.5190   30.0980 C   0  0  2  0  0  0  0  0  0  0  0  0
   55.8360   10.8570   29.1660 C   0  0  0  0  0  0  0  0  0  0  0  0
   55.2390    9.9640   28.5510 O   0  0  0  0  0  0  0  0  0  0  0  0
   58.1230    9.8560   29.3170 C   0  0  0  0  0  0  0  0  0  0  0  0
   58.4140   10.5040   27.9990 C   0  0  0  0  0  0  0  0  0  0  0  0
   59.0570   11.7180   27.8910 N   0  0  0  0  0  0  0  0  0  0  0  0
   58.1680   10.0950   26.7300 C   0  0  0  0  0  0  0  0  0  0  0  0
   59.1850   12.0350   26.6140 C   0  0  0  0  0  0  0  0  0  0  0  0
   58.6520   11.0680   25.8890 N   0  0  0  0  0  0  0  0  0  0  0  0
   49.3330   24.8460   38.8780 N   0  0  0  0  0  0  0  0  0  0  0  0
   50.4420   24.8430   37.9340 C   0  0  2  0  0  0  0  0  0  0  0  0
   50.5430   23.4580   37.3070 C   0  0  0  0  0  0  0  0  0  0  0  0
   50.1260   22.4630   37.9010 O   0  0  0  0  0  0  0  0  0  0  0  0
   51.7600   25.2330   38.6170 C   0  0  0  0  0  0  0  0  0  0  0  0
   52.8940   25.4200   37.6320 C   0  0  0  0  0  0  0  0  0  0  0  0
   52.6430   25.9540   36.5320 O   0  0  0  0  0  0  0  0  0  0  0  0
   54.0360   25.0460   37.9620 O   0  0  0  0  0  0  0  0  0  0  0  0
   51.0820   23.3910   36.0920 N   0  0  0  0  0  0  0  0  0  0  0  0
   51.0260   22.1550   35.3240 C   0  0  2  0  0  0  0  0  0  0  0  0
   52.3350   21.9170   34.5800 C   0  0  0  0  0  0  0  0  0  0  0  0
   52.9920   22.8680   34.1550 O   0  0  0  0  0  0  0  0  0  0  0  0
   49.8430   22.1980   34.3470 C   0  0  2  0  0  0  0  0  0  0  0  0
   48.6630   22.5990   35.0570 O   0  0  0  0  0  0  0  0  0  0  0  0
   49.6070   20.8400   33.7630 C   0  0  0  0  0  0  0  0  0  0  0  0
   52.7390   20.6460   34.4780 N   0  0  0  0  0  0  0  0  0  0  0  0
   53.9020   20.2290   33.7000 C   0  0  2  0  0  0  0  0  0  0  0  0
   53.5440   18.9710   32.9160 C   0  0  0  0  0  0  0  0  0  0  0  0
   52.6520   18.2120   33.3030 O   0  0  0  0  0  0  0  0  0  0  0  0
   55.1480   19.9560   34.5730 C   0  0  0  0  0  0  0  0  0  0  0  0
   56.3970   20.0650   33.7160 C   0  0  0  0  0  0  0  0  0  0  0  0
   55.2090   20.8930   35.7720 C   0  0  0  0  0  0  0  0  0  0  0  0
   54.2180   18.7650   31.7850 N   0  0  0  0  0  0  0  0  0  0  0  0
   54.0580   17.5470   30.9850 C   0  0  2  0  0  0  0  0  0  0  0  0
   55.3590   16.7440   31.0720 C   0  0  0  0  0  0  0  0  0  0  0  0
   56.2940   16.9680   30.3010 O   0  0  0  0  0  0  0  0  0  0  0  0
   53.6780   17.8600   29.5400 C   0  0  0  0  0  0  0  0  0  0  0  0
   53.1790   16.6360   28.7940 C   0  0  0  0  0  0  0  0  0  0  0  0
   52.6310   16.9560   27.4220 C   0  0  0  0  0  0  0  0  0  0  0  0
   52.3040   18.1040   27.1250 O   0  0  0  0  0  0  0  0  0  0  0  0
   52.5260   15.9370   26.5730 N   0  0  0  0  0  0  0  0  0  0  0  0
   55.3950   15.7990   32.0170 N   0  0  0  0  0  0  0  0  0  0  0  0
   56.6200   15.1030   32.4130 C   0  0  2  0  0  0  0  0  0  0  0  0
   57.4590   14.6160   31.2380 C   0  0  0  0  0  0  0  0  0  0  0  0
   56.9510   14.0760   30.2520 O   0  0  0  0  0  0  0  0  0  0  0  0
   56.2960   13.9170   33.3240 C   0  0  0  0  0  0  0  0  0  0  0  0
   55.8630   14.2820   34.7420 C   0  0  0  0  0  0  0  0  0  0  0  0
   55.6950   13.0180   35.5610 C   0  0  0  0  0  0  0  0  0  0  0  0
   56.8890   15.2120   35.3710 C   0  0  0  0  0  0  0  0  0  0  0  0
   58.7680   14.8240   31.3770 N   0  0  0  0  0  0  0  0  0  0  0  0
   59.8190   14.3710   30.4680 C   0  0  2  0  0  0  0  0  0  0  0  0
   60.6470   13.3200   31.2090 C   0  0  0  0  0  0  0  0  0  0  0  0
   61.5380   13.6660   31.9910 O   0  0  0  0  0  0  0  0  0  0  0  0
   60.6700   15.5690   30.0540 C   0  0  0  0  0  0  0  0  0  0  0  0
   61.7540   15.2180   29.0760 C   0  0  0  0  0  0  0  0  0  0  0  0
   61.7500   14.1510   28.4670 O   0  0  0  0  0  0  0  0  0  0  0  0
   62.7320   16.1070   28.9590 N   0  0  0  0  0  0  0  0  0  0  0  0
   63.1670   10.1830   30.9260 N   0  0  0  0  0  0  0  0  0  0  0  0
   64.0930    9.3840   30.1310 C   0  0  2  0  0  0  0  0  0  0  0  0
   63.9500    7.9000   30.4570 C   0  0  0  0  0  0  0  0  0  0  0  0
   63.7040    7.5240   31.6070 O   0  0  0  0  0  0  0  0  0  0  0  0
   65.5300    9.8280   30.4120 C   0  0  0  0  0  0  0  0  0  0  0  0
   65.9050   11.1850   29.8480 C   0  0  0  0  0  0  0  0  0  0  0  0
   67.3560   11.5090   30.1710 C   0  0  0  0  0  0  0  0  0  0  0  0
   67.8080   12.8040   29.5150 C   0  0  0  0  0  0  0  0  0  0  0  0
   69.2530   13.0700   29.7740 N   0  0  0  0  0  0  0  0  0  0  0  0
   62.9670    7.3410   25.2440 N   0  0  0  0  0  0  0  0  0  0  0  0
   63.2950    8.7310   25.5350 C   0  0  2  0  0  0  0  0  0  0  0  0
   64.7530    8.8050   25.9710 C   0  0  0  0  0  0  0  0  0  0  0  0
   65.0820    8.3910   27.0910 O   0  0  0  0  0  0  0  0  0  0  0  0
   62.3760    9.3010   26.6170 C   0  0  0  0  0  0  0  0  0  0  0  0
   62.6010   10.7820   26.8530 C   0  0  0  0  0  0  0  0  0  0  0  0
   63.2980   11.4460   26.0880 O   0  0  0  0  0  0  0  0  0  0  0  0
   62.0120   11.3060   27.9210 N   0  0  0  0  0  0  0  0  0  0  0  0
   65.6620    9.3220   25.1300 N   0  0  0  0  0  0  0  0  0  0  0  0
   65.4950    9.9400   23.8070 C   0  0  2  0  0  0  0  0  0  0  0  0
   65.2050    8.9630   22.6680 C   0  0  0  0  0  0  0  0  0  0  0  0
   64.8230    7.8200   22.9070 O   0  0  0  0  0  0  0  0  0  0  0  0
   66.8400   10.6330   23.5810 C   0  0  0  0  0  0  0  0  0  0  0  0
   67.7970    9.8170   24.3450 C   0  0  0  0  0  0  0  0  0  0  0  0
   67.0680    9.3510   25.5660 C   0  0  0  0  0  0  0  0  0  0  0  0
   65.3680    9.4320   21.4350 N   0  0  0  0  0  0  0  0  0  0  0  0
   65.0750    8.6070   20.2740 C   0  0  2  0  0  0  0  0  0  0  0  0
   66.1030    7.4880   20.1420 C   0  0  0  0  0  0  0  0  0  0  0  0
   67.2330    7.5930   20.6280 O   0  0  0  0  0  0  0  0  0  0  0  0
   65.0990    9.4670   19.0110 C   0  0  0  0  0  0  0  0  0  0  0  0
   64.0570   10.5740   18.9770 C   0  0  0  0  0  0  0  0  0  0  0  0
   64.5610   11.8590   19.6230 C   0  0  0  0  0  0  0  0  0  0  0  0
   65.1800   11.7850   20.7070 O   0  0  0  0  0  0  0  0  0  0  0  0
   64.3580   12.9430   19.0360 O   0  0  0  0  0  0  0  0  0  0  0  0
  2  1  1  1
  3  2  1  0
  4  3  2  0
  5  2  1  0
  6  5  1  0
  7  6  1  0
  8  6  2  0
  9  7  2  0
 10  9  1  0
 10  8  1  0
 11  3  1  0
 12 11  1  6
 13 12  1  0
 14 13  2  0
 15 12  1  0
 16 15  1  0
 15 17  1  1
 18 16  1  0
 19 13  1  0
 20 19  1  0
 21 20  1  0
 22 21  2  0
 20 23  1  1
 24 23  1  0
 25 24  1  0
 26 25  2  0
 27 25  1  0
 28 21  1  0
 29 28  1  0
 30 29  1  0
 31 30  2  0
 29 32  1  6
 33 32  1  0
 34 33  1  0
 35 33  1  0
 36 30  1  0
 37 36  1  0
 37 38  1  6
 39 38  2  0
 40 37  1  0
 41 40  1  0
 42 41  1  0
 42 36  1  0
 43 38  1  0
 44 43  1  0
 44 45  1  1
 46 45  2  0
 47 44  1  0
 48 47  1  0
 49 48  1  0
 49 43  1  0
 51 50  1  1
 52 51  1  0
 53 52  2  0
 54 51  1  0
 55 54  1  0
 56 55  1  0
 57 55  2  0
 58 56  2  0
 59 57  1  0
 59 58  1  0
 61 60  1  1
 62 61  1  0
 63 62  2  0
 64 61  1  0
 65 64  1  0
 66 65  2  0
 67 65  1  0
 68 62  1  0
 69 68  1  6
 70 69  1  0
 71 70  2  0
 72 69  1  0
 73 72  1  0
 72 74  1  1
 75 70  1  0
 76 75  1  1
 77 76  1  0
 78 77  2  0
 79 76  1  0
 80 79  1  0
 81 79  1  0
 82 77  1  0
 83 82  1  0
 84 83  1  0
 85 84  2  0
 83 86  1  6
 87 86  1  0
 88 87  1  0
 89 88  2  0
 90 88  1  0
 91 84  1  0
 92 91  1  0
 93 92  1  0
 94 93  2  0
 92 95  1  1
 96 95  1  0
 97 96  1  0
 98 96  1  0
 99 93  1  0
100 99  1  0
101100  1  0
102101  2  0
100103  1  1
104103  1  0
105104  2  0
106104  1  0
108107  1  1
109108  1  0
110109  2  0
111108  1  0
112111  1  0
113112  1  0
114113  1  0
115114  1  0
117116  1  1
118117  1  0
119118  2  0
120117  1  0
121120  1  0
122121  2  0
123121  1  0
124118  1  0
125124  1  0
125126  1  6
127126  2  0
128125  1  0
129128  1  0
130129  1  0
130124  1  0
131126  1  0
132131  1  0
133132  1  0
134133  2  0
132135  1  6
136135  1  0
137136  1  0
138137  2  0
139137  1  0
M  END
$$$$
