
     RDKit          3D

118112  0  0  0  0  0  0  0  0999 V2000
  -29.0300    9.8270   97.2710 N   0  0  0  0  0  0  0  0  0  0  0  0
  -28.1010   10.7850   96.6940 C   0  0  2  0  0  0  0  0  0  0  0  0
  -28.8180   11.6640   95.6700 C   0  0  0  0  0  0  0  0  0  0  0  0
  -28.6480   12.8880   95.6890 O   0  0  0  0  0  0  0  0  0  0  0  0
  -26.8740   10.0590   96.1050 C   0  0  0  0  0  0  0  0  0  0  0  0
  -26.0660   10.9760   95.1720 C   0  0  0  0  0  0  0  0  0  0  0  0
  -26.0020    9.4780   97.2250 C   0  0  0  0  0  0  0  0  0  0  0  0
  -33.1350   15.1560  102.6610 N   0  0  0  0  0  0  0  0  0  0  0  0
  -32.1640   15.9000  103.4540 C   0  0  2  0  0  0  0  0  0  0  0  0
  -30.8250   16.0510  102.7460 C   0  0  0  0  0  0  0  0  0  0  0  0
  -30.2320   17.1300  102.7820 O   0  0  0  0  0  0  0  0  0  0  0  0
  -31.9640   15.1830  104.8070 C   0  0  0  0  0  0  0  0  0  0  0  0
  -31.8030   16.0860  106.0150 C   0  0  0  0  0  0  0  0  0  0  0  0
  -31.3640   17.2410  105.8410 O   0  0  0  0  0  0  0  0  0  0  0  0
  -32.1070   15.6330  107.1330 O   0  0  0  0  0  0  0  0  0  0  0  0
  -30.3500   14.9570  102.1280 N   0  0  0  0  0  0  0  0  0  0  0  0
  -29.0550   14.8210  101.4700 C   0  0  2  0  0  0  0  0  0  0  0  0
  -29.0870   14.8520   99.9420 C   0  0  0  0  0  0  0  0  0  0  0  0
  -28.0160   14.9070   99.3210 O   0  0  0  0  0  0  0  0  0  0  0  0
  -28.3780   13.5360  101.9410 C   0  0  0  0  0  0  0  0  0  0  0  0
  -30.2820   14.7920   99.3540 N   0  0  0  0  0  0  0  0  0  0  0  0
  -30.4570   14.7450   97.9040 C   0  0  0  0  0  0  0  0  0  0  0  0
  -29.9990   15.9760   97.1530 C   0  0  0  0  0  0  0  0  0  0  0  0
  -30.0690   17.0840   97.6990 O   0  0  0  0  0  0  0  0  0  0  0  0
  -29.5030   15.7850   95.8970 N   0  0  0  0  0  0  0  0  0  0  0  0
  -29.0330   16.8770   95.0310 C   0  0  2  0  0  0  0  0  0  0  0  0
  -30.2900   17.6070   94.5030 C   0  0  0  0  0  0  0  0  0  0  0  0
  -30.5060   18.7910   94.8000 O   0  0  0  0  0  0  0  0  0  0  0  0
  -28.0870   16.3540   93.9090 C   0  0  0  0  0  0  0  0  0  0  0  0
  -27.7180   17.4550   92.9170 C   0  0  0  0  0  0  0  0  0  0  0  0
  -26.8300   15.7330   94.4970 C   0  0  0  0  0  0  0  0  0  0  0  0
  -33.5670   17.5050   95.3700 N   0  0  0  0  0  0  0  0  0  0  0  0
  -34.3370   17.1560   96.5590 C   0  0  2  0  0  0  0  0  0  0  0  0
  -35.7700   16.7060   96.2770 C   0  0  0  0  0  0  0  0  0  0  0  0
  -36.2230   15.7430   96.8980 O   0  0  0  0  0  0  0  0  0  0  0  0
  -34.2970   18.2860   97.6030 C   0  0  0  0  0  0  0  0  0  0  0  0
  -33.0220   18.2450   98.4390 C   0  0  0  0  0  0  0  0  0  0  0  0
  -32.9360   19.3200   99.5110 C   0  0  0  0  0  0  0  0  0  0  0  0
  -31.9360   18.9680  100.6050 C   0  0  0  0  0  0  0  0  0  0  0  0
  -30.5040   19.0830  100.1810 N   0  0  0  0  0  0  0  0  0  0  0  0
  -14.5420   11.7840   92.4280 N   0  0  0  0  0  0  0  0  0  0  0  0
  -13.5240   12.5950   93.1030 C   0  0  2  0  0  0  0  0  0  0  0  0
  -13.7240   12.5670   94.6250 C   0  0  0  0  0  0  0  0  0  0  0  0
  -14.8600   12.4360   95.0930 O   0  0  0  0  0  0  0  0  0  0  0  0
  -13.4390   14.0480   92.5620 C   0  0  2  0  0  0  0  0  0  0  0  0
  -14.5540   14.8390   93.0260 O   0  0  0  0  0  0  0  0  0  0  0  0
  -13.2710   14.1190   91.0570 C   0  0  0  0  0  0  0  0  0  0  0  0
  -12.6290   12.6710   95.3960 N   0  0  0  0  0  0  0  0  0  0  0  0
  -12.6740   12.6830   96.8540 C   0  0  2  0  0  0  0  0  0  0  0  0
  -13.0890   14.0510   97.4240 C   0  0  0  0  0  0  0  0  0  0  0  0
  -13.5820   14.9100   96.6780 O   0  0  0  0  0  0  0  0  0  0  0  0
  -11.3400   12.2270   97.4230 C   0  0  0  0  0  0  0  0  0  0  0  0
  -10.1530   13.0210   96.9470 C   0  0  0  0  0  0  0  0  0  0  0  0
  -10.1150   14.2610   96.9890 O   0  0  0  0  0  0  0  0  0  0  0  0
   -9.1300   12.3010   96.5200 N   0  0  0  0  0  0  0  0  0  0  0  0
  -12.8650   14.2520   98.7440 N   0  0  0  0  0  0  0  0  0  0  0  0
  -13.1810   15.4780   99.4850 C   0  0  2  0  0  0  0  0  0  0  0  0
  -12.3330   16.6870   99.0690 C   0  0  0  0  0  0  0  0  0  0  0  0
  -12.7650   17.8250   99.2810 O   0  0  0  0  0  0  0  0  0  0  0  0
  -13.0270   15.2330  100.9680 C   0  0  0  0  0  0  0  0  0  0  0  0
  -11.3350   17.1470   95.8980 N   0  0  0  0  0  0  0  0  0  0  0  0
  -11.6020   17.1570   94.4580 C   0  0  2  0  0  0  0  0  0  0  0  0
  -10.5480   16.3840   93.6440 C   0  0  0  0  0  0  0  0  0  0  0  0
  -10.4580   16.5710   92.4330 O   0  0  0  0  0  0  0  0  0  0  0  0
  -11.8030   18.6010   93.9410 C   0  0  0  0  0  0  0  0  0  0  0  0
  -12.7450   19.4350   94.8030 C   0  0  0  0  0  0  0  0  0  0  0  0
  -13.6780   18.8450   95.4210 O   0  0  0  0  0  0  0  0  0  0  0  0
  -12.5430   20.6710   94.8800 O   0  0  0  0  0  0  0  0  0  0  0  0
  -18.0200   14.4380   93.0760 N   0  0  0  0  0  0  0  0  0  0  0  0
  -17.6840   13.7610   94.3410 C   0  0  2  0  0  0  0  0  0  0  0  0
  -18.2750   12.3540   94.4240 C   0  0  0  0  0  0  0  0  0  0  0  0
  -19.4550   12.1610   94.0950 O   0  0  0  0  0  0  0  0  0  0  0  0
  -18.2400   14.7070   95.4240 C   0  0  0  0  0  0  0  0  0  0  0  0
  -19.1920   15.6070   94.7180 C   0  0  0  0  0  0  0  0  0  0  0  0
  -18.6010   15.7690   93.3420 C   0  0  0  0  0  0  0  0  0  0  0  0
  -16.6430    9.9390   97.0130 N   0  0  0  0  0  0  0  0  0  0  0  0
  -15.9590    9.3070   98.1340 C   0  0  2  0  0  0  0  0  0  0  0  0
  -16.6560    9.7150   99.4110 C   0  0  0  0  0  0  0  0  0  0  0  0
  -16.9910   10.8920   99.5600 O   0  0  0  0  0  0  0  0  0  0  0  0
  -14.4780    9.7010   98.1760 C   0  0  0  0  0  0  0  0  0  0  0  0
  -13.6560    8.8800   99.1520 C   0  0  0  0  0  0  0  0  0  0  0  0
  -12.3610    9.5380   99.5770 C   0  0  0  0  0  0  0  0  0  0  0  0
  -11.3070    9.1780   99.0010 O   0  0  0  0  0  0  0  0  0  0  0  0
  -12.4030   10.4420  100.4470 O   0  0  0  0  0  0  0  0  0  0  0  0
  -16.8800    8.7390  100.3220 N   0  0  0  0  0  0  0  0  0  0  0  0
  -17.5140    8.9060  101.6340 C   0  0  2  0  0  0  0  0  0  0  0  0
  -18.7630    9.7790  101.5820 C   0  0  0  0  0  0  0  0  0  0  0  0
  -18.8660   10.7740  102.3220 O   0  0  0  0  0  0  0  0  0  0  0  0
  -16.5070    9.4420  102.6700 C   0  0  0  0  0  0  0  0  0  0  0  0
  -15.3100    8.5460  102.9000 C   0  0  0  0  0  0  0  0  0  0  0  0
  -15.4920    7.3020  102.9370 O   0  0  0  0  0  0  0  0  0  0  0  0
  -14.1930    9.0850  103.0760 O   0  0  0  0  0  0  0  0  0  0  0  0
  -19.6940    9.4240  100.6760 N   0  0  0  0  0  0  0  0  0  0  0  0
  -20.9270   10.1750  100.4940 C   0  0  2  0  0  0  0  0  0  0  0  0
  -21.9990    9.7170  101.4540 C   0  0  0  0  0  0  0  0  0  0  0  0
  -22.3530    8.5400  101.4590 O   0  0  0  0  0  0  0  0  0  0  0  0
  -21.4180   10.1480   99.0300 C   0  0  2  0  0  0  0  0  0  0  0  0
  -20.4390   10.9090   98.1010 C   0  0  0  0  0  0  0  0  0  0  0  0
  -22.8600   10.6910   98.9280 C   0  0  0  0  0  0  0  0  0  0  0  0
  -20.9830   11.2330   96.6390 C   0  0  0  0  0  0  0  0  0  0  0  0
  -22.5500   10.6620  102.2350 N   0  0  0  0  0  0  0  0  0  0  0  0
  -23.6580   10.3620  103.1430 C   0  0  2  0  0  0  0  0  0  0  0  0
  -24.9620   10.4210  102.3400 C   0  0  0  0  0  0  0  0  0  0  0  0
  -25.2350   11.4200  101.6440 O   0  0  0  0  0  0  0  0  0  0  0  0
  -23.6990   11.2500  104.4300 C   0  0  2  0  0  0  0  0  0  0  0  0
  -22.3510   11.1900  105.2110 C   0  0  0  0  0  0  0  0  0  0  0  0
  -24.9040   10.8810  105.3330 C   0  0  0  0  0  0  0  0  0  0  0  0
  -22.0010   12.4240  106.1730 C   0  0  0  0  0  0  0  0  0  0  0  0
  -24.7210   11.8420   91.6040 N   0  0  0  0  0  0  0  0  0  0  0  0
  -24.5800   13.2520   91.9140 C   0  0  2  0  0  0  0  0  0  0  0  0
  -24.9400   14.0900   90.6980 C   0  0  0  0  0  0  0  0  0  0  0  0
  -25.7770   14.9900   90.7870 O   0  0  0  0  0  0  0  0  0  0  0  0
  -23.1510   13.5450   92.3820 C   0  0  0  0  0  0  0  0  0  0  0  0
  -22.9330   14.9730   92.7790 C   0  0  0  0  0  0  0  0  0  0  0  0
  -23.3580   15.4550   94.0100 N   0  0  0  0  0  0  0  0  0  0  0  0
  -22.3170   15.9740   92.1070 C   0  0  0  0  0  0  0  0  0  0  0  0
  -23.0000   16.7300   94.0410 C   0  0  0  0  0  0  0  0  0  0  0  0
  -22.3720   17.0910   92.9190 N   0  0  0  0  0  0  0  0  0  0  0  0
  2  1  1  6
  3  2  1  0
  4  3  2  0
  5  2  1  0
  6  5  1  0
  7  5  1  0
  9  8  1  6
 10  9  1  0
 11 10  2  0
 12  9  1  0
 13 12  1  0
 14 13  2  0
 15 13  1  0
 16 10  1  0
 17 16  1  0
 18 17  1  0
 19 18  2  0
 17 20  1  6
 21 18  1  0
 22 21  1  0
 23 22  1  0
 24 23  2  0
 25 23  1  0
 26 25  1  6
 27 26  1  0
 28 27  2  0
 29 26  1  0
 30 29  1  0
 31 29  1  0
 33 32  1  6
 34 33  1  0
 35 34  2  0
 36 33  1  0
 37 36  1  0
 38 37  1  0
 39 38  1  0
 40 39  1  0
 42 41  1  6
 43 42  1  0
 44 43  2  0
 45 42  1  0
 46 45  1  0
 45 47  1  6
 48 43  1  0
 49 48  1  0
 50 49  1  0
 51 50  2  0
 49 52  1  1
 53 52  1  0
 54 53  2  0
 55 53  1  0
 56 50  1  0
 57 56  1  0
 58 57  1  0
 59 58  2  0
 57 60  1  1
 62 61  1  1
 63 62  1  0
 64 63  2  0
 65 62  1  0
 66 65  1  0
 67 66  2  0
 68 66  1  0
 70 69  1  0
 70 71  1  6
 72 71  2  0
 73 70  1  0
 74 73  1  0
 75 74  1  0
 75 69  1  0
 77 76  1  6
 78 77  1  0
 79 78  2  0
 80 77  1  0
 81 80  1  0
 82 81  1  0
 83 82  2  0
 84 82  1  0
 85 78  1  0
 86 85  1  0
 87 86  1  0
 88 87  2  0
 86 89  1  1
 90 89  1  0
 91 90  2  0
 92 90  1  0
 93 87  1  0
 94 93  1  6
 95 94  1  0
 96 95  2  0
 97 94  1  0
 98 97  1  0
 97 99  1  1
100 98  1  0
101 95  1  0
102101  1  6
103102  1  0
104103  2  0
105102  1  0
106105  1  0
105107  1  1
108106  1  0
110109  1  6
111110  1  0
112111  2  0
113110  1  0
114113  1  0
115114  1  0
116114  2  0
117115  2  0
118116  1  0
118117  1  0
M  END
$$$$
