
     RDKit          3D

112105  0  0  0  0  0  0  0  0999 V2000
  164.8110  115.4640  161.3930 N   0  0  0  0  0  0  0  0  0  0  0  0
  164.9260  115.3270  162.8380 C   0  0  2  0  0  0  0  0  0  0  0  0
  165.8450  116.3490  163.4960 C   0  0  0  0  0  0  0  0  0  0  0  0
  165.6030  116.7400  164.6390 O   0  0  0  0  0  0  0  0  0  0  0  0
  165.3930  113.9100  163.1880 C   0  0  0  0  0  0  0  0  0  0  0  0
  166.6860  113.5220  162.4940 C   0  0  0  0  0  0  0  0  0  0  0  0
  167.2990  114.3140  161.7810 O   0  0  0  0  0  0  0  0  0  0  0  0
  167.1080  112.2850  162.7060 N   0  0  0  0  0  0  0  0  0  0  0  0
  161.0110  112.7100  177.9550 N   0  0  0  0  0  0  0  0  0  0  0  0
  162.0690  113.3530  178.7150 C   0  0  2  0  0  0  0  0  0  0  0  0
  163.1640  113.8710  177.7840 C   0  0  0  0  0  0  0  0  0  0  0  0
  163.3620  113.3690  176.6770 O   0  0  0  0  0  0  0  0  0  0  0  0
  162.6300  112.3200  179.6960 C   0  0  0  0  0  0  0  0  0  0  0  0
  163.7140  112.8250  180.5870 C   0  0  0  0  0  0  0  0  0  0  0  0
  165.0430  112.7930  180.2300 N   0  0  0  0  0  0  0  0  0  0  0  0
  163.6710  113.3450  181.8340 C   0  0  0  0  0  0  0  0  0  0  0  0
  165.7720  113.2860  181.2150 C   0  0  0  0  0  0  0  0  0  0  0  0
  164.9630  113.6310  182.2000 N   0  0  0  0  0  0  0  0  0  0  0  0
  163.8870  114.8880  178.2420 N   0  0  0  0  0  0  0  0  0  0  0  0
  164.9540  115.4560  177.4330 C   0  0  2  0  0  0  0  0  0  0  0  0
  166.2060  114.5800  177.4910 C   0  0  0  0  0  0  0  0  0  0  0  0
  166.2330  113.5180  178.1160 O   0  0  0  0  0  0  0  0  0  0  0  0
  165.2700  116.8740  177.8910 C   0  0  0  0  0  0  0  0  0  0  0  0
  166.3280  117.4130  177.1240 O   0  0  0  0  0  0  0  0  0  0  0  0
  167.2670  115.0390  176.8290 N   0  0  0  0  0  0  0  0  0  0  0  0
  168.5420  114.3280  176.7890 C   0  0  2  0  0  0  0  0  0  0  0  0
  169.3610  114.6300  178.0340 C   0  0  0  0  0  0  0  0  0  0  0  0
  168.8090  115.0760  179.0400 O   0  0  0  0  0  0  0  0  0  0  0  0
  169.3350  114.6970  175.5390 C   0  0  0  0  0  0  0  0  0  0  0  0
  169.7670  116.0430  175.5980 O   0  0  0  0  0  0  0  0  0  0  0  0
  170.6650  114.3690  177.9960 N   0  0  0  0  0  0  0  0  0  0  0  0
  171.4950  114.6310  179.1580 C   0  0  0  0  0  0  0  0  0  0  0  0
  172.7220  115.4860  178.9100 C   0  0  0  0  0  0  0  0  0  0  0  0
  172.7010  116.3840  178.0640 O   0  0  0  0  0  0  0  0  0  0  0  0
  173.8010  115.2140  179.6430 N   0  0  0  0  0  0  0  0  0  0  0  0
  175.0400  115.9500  179.4940 C   0  0  0  0  0  0  0  0  0  0  0  0
  175.2230  117.0780  180.4870 C   0  0  0  0  0  0  0  0  0  0  0  0
  175.3400  116.8500  181.6920 O   0  0  0  0  0  0  0  0  0  0  0  0
  175.2510  118.3000  179.9840 N   0  0  0  0  0  0  0  0  0  0  0  0
  175.4110  119.4700  180.8330 C   0  0  2  0  0  0  0  0  0  0  0  0
  174.0820  119.7540  181.5360 C   0  0  0  0  0  0  0  0  0  0  0  0
  173.0290  119.7070  180.8930 O   0  0  0  0  0  0  0  0  0  0  0  0
  175.8360  120.6550  179.9530 C   0  0  0  0  0  0  0  0  0  0  0  0
  176.4470  121.8220  180.7200 C   0  0  0  0  0  0  0  0  0  0  0  0
  176.5810  121.7790  181.9520 O   0  0  0  0  0  0  0  0  0  0  0  0
  176.8180  122.8120  180.0570 O   0  0  0  0  0  0  0  0  0  0  0  0
  171.2600  122.0860  180.0530 N   0  0  0  0  0  0  0  0  0  0  0  0
  170.6120  121.7020  178.8100 C   0  0  2  0  0  0  0  0  0  0  0  0
  169.2780  121.0200  179.0660 C   0  0  0  0  0  0  0  0  0  0  0  0
  168.2720  121.3480  178.4370 O   0  0  0  0  0  0  0  0  0  0  0  0
  171.5410  120.7730  178.0020 C   0  0  2  0  0  0  0  0  0  0  0  0
  172.8130  121.4930  177.5860 C   0  0  0  0  0  0  0  0  0  0  0  0
  170.8300  120.2180  176.7940 C   0  0  0  0  0  0  0  0  0  0  0  0
  173.7990  120.5660  176.9350 C   0  0  0  0  0  0  0  0  0  0  0  0
  175.6800  130.7470  175.3440 N   0  0  0  0  0  0  0  0  0  0  0  0
  175.8720  129.5130  174.5900 C   0  0  2  0  0  0  0  0  0  0  0  0
  176.5510  129.7410  173.2450 C   0  0  0  0  0  0  0  0  0  0  0  0
  176.0550  130.5000  172.4060 O   0  0  0  0  0  0  0  0  0  0  0  0
  174.4840  128.8960  174.3660 C   0  0  0  0  0  0  0  0  0  0  0  0
  174.4160  127.7860  173.3420 C   0  0  0  0  0  0  0  0  0  0  0  0
  173.0100  127.2630  173.1190 C   0  0  0  0  0  0  0  0  0  0  0  0
  172.0590  127.6950  173.7720 O   0  0  0  0  0  0  0  0  0  0  0  0
  172.8680  126.3440  172.1740 N   0  0  0  0  0  0  0  0  0  0  0  0
  161.9220  118.9000  169.3260 N   0  0  0  0  0  0  0  0  0  0  0  0
  162.8490  118.1870  168.4640 C   0  0  2  0  0  0  0  0  0  0  0  0
  162.3070  116.7810  168.2660 C   0  0  0  0  0  0  0  0  0  0  0  0
  161.5980  116.2530  169.1250 O   0  0  0  0  0  0  0  0  0  0  0  0
  164.2680  118.1650  169.0440 C   0  0  2  0  0  0  0  0  0  0  0  0
  165.1470  117.4840  168.1410 O   0  0  0  0  0  0  0  0  0  0  0  0
  164.3050  117.4990  170.4090 C   0  0  0  0  0  0  0  0  0  0  0  0
  162.6230  116.1890  167.1240 N   0  0  0  0  0  0  0  0  0  0  0  0
  162.1620  114.8500  166.7940 C   0  0  2  0  0  0  0  0  0  0  0  0
  163.3400  113.8910  166.8240 C   0  0  0  0  0  0  0  0  0  0  0  0
  164.4180  114.2130  166.3180 O   0  0  0  0  0  0  0  0  0  0  0  0
  161.4940  114.8330  165.4170 C   0  0  0  0  0  0  0  0  0  0  0  0
  160.8790  113.5010  165.0300 C   0  0  0  0  0  0  0  0  0  0  0  0
  160.1390  113.5920  163.7090 C   0  0  0  0  0  0  0  0  0  0  0  0
  161.0390  113.7730  162.5790 N   0  0  0  0  0  0  0  0  0  0  0  0
  161.6300  112.7700  161.9400 C   0  0  0  0  0  0  0  0  0  0  0  0
  161.4080  111.5200  162.3190 N   0  0  0  0  0  0  0  0  0  0  0  0
  162.4390  113.0130  160.9200 N   0  0  0  0  0  0  0  0  0  0  0  0
  163.1410  112.7200  167.4190 N   0  0  0  0  0  0  0  0  0  0  0  0
  164.1930  111.7160  167.4980 C   0  0  2  0  0  0  0  0  0  0  0  0
  164.0770  110.8020  166.2880 C   0  0  0  0  0  0  0  0  0  0  0  0
  163.1370  110.0080  166.1910 O   0  0  0  0  0  0  0  0  0  0  0  0
  164.0920  110.9000  168.7800 C   0  0  0  0  0  0  0  0  0  0  0  0
  164.3920  111.7090  170.0150 C   0  0  0  0  0  0  0  0  0  0  0  0
  165.1670  112.6840  169.9230 O   0  0  0  0  0  0  0  0  0  0  0  0
  163.8550  111.3560  171.0850 O   0  0  0  0  0  0  0  0  0  0  0  0
  165.0270  110.9070  165.3680 N   0  0  0  0  0  0  0  0  0  0  0  0
  164.9890  110.0540  164.2020 C   0  0  0  0  0  0  0  0  0  0  0  0
  165.4890  108.6780  164.5750 C   0  0  0  0  0  0  0  0  0  0  0  0
  166.6920  108.4780  164.7560 O   0  0  0  0  0  0  0  0  0  0  0  0
  160.9890  115.5820  172.1680 N   0  0  0  0  0  0  0  0  0  0  0  0
  161.6830  116.0090  173.3700 C   0  0  2  0  0  0  0  0  0  0  0  0
  161.7040  117.5250  173.4050 C   0  0  0  0  0  0  0  0  0  0  0  0
  161.5820  118.1720  172.3600 O   0  0  0  0  0  0  0  0  0  0  0  0
  163.1160  115.4550  173.3840 C   0  0  0  0  0  0  0  0  0  0  0  0
  163.1850  113.9450  173.4310 C   0  0  0  0  0  0  0  0  0  0  0  0
  164.6100  113.4560  173.4700 C   0  0  0  0  0  0  0  0  0  0  0  0
  164.6720  112.0070  173.3280 N   0  0  0  0  0  0  0  0  0  0  0  0
  164.6270  111.1530  174.3430 C   0  0  0  0  0  0  0  0  0  0  0  0
  164.5260  111.6010  175.5820 N   0  0  0  0  0  0  0  0  0  0  0  0
  164.6890  109.8510  174.1190 N   0  0  0  0  0  0  0  0  0  0  0  0
  164.2720  119.4860  174.1240 N   0  0  0  0  0  0  0  0  0  0  0  0
  165.5190  119.9460  173.5430 C   0  0  0  0  0  0  0  0  0  0  0  0
  166.0350  121.2790  174.0400 C   0  0  0  0  0  0  0  0  0  0  0  0
  166.5540  121.3890  175.1540 O   0  0  0  0  0  0  0  0  0  0  0  0
  167.6170  123.4920  171.4840 N   0  0  0  0  0  0  0  0  0  0  0  0
  168.2980  123.8810  170.2630 C   0  0  0  0  0  0  0  0  0  0  0  0
  169.3640  124.9400  170.4790 C   0  0  0  0  0  0  0  0  0  0  0  0
  170.0860  124.9570  171.4810 O   0  0  0  0  0  0  0  0  0  0  0  0
  2  1  1  6
  3  2  1  0
  4  3  2  0
  5  2  1  0
  6  5  1  0
  7  6  2  0
  8  6  1  0
 10  9  1  6
 11 10  1  0
 12 11  2  0
 13 10  1  0
 14 13  1  0
 15 14  1  0
 16 14  2  0
 17 15  2  0
 18 17  1  0
 18 16  1  0
 19 11  1  0
 20 19  1  0
 21 20  1  0
 22 21  2  0
 20 23  1  1
 24 23  1  0
 25 21  1  0
 26 25  1  0
 27 26  1  0
 28 27  2  0
 26 29  1  6
 30 29  1  0
 31 27  1  0
 32 31  1  0
 33 32  1  0
 34 33  2  0
 35 33  1  0
 36 35  1  0
 37 36  1  0
 38 37  2  0
 39 37  1  0
 40 39  1  0
 41 40  1  0
 42 41  2  0
 40 43  1  6
 44 43  1  0
 45 44  2  0
 46 44  1  0
 48 47  1  1
 49 48  1  0
 50 49  2  0
 51 48  1  0
 52 51  1  0
 51 53  1  6
 54 52  1  0
 56 55  1  6
 57 56  1  0
 58 57  2  0
 59 56  1  0
 60 59  1  0
 61 60  1  0
 62 61  2  0
 63 61  1  0
 65 64  1  1
 66 65  1  0
 67 66  2  0
 68 65  1  0
 69 68  1  0
 68 70  1  1
 71 66  1  0
 72 71  1  0
 73 72  1  0
 74 73  2  0
 72 75  1  6
 76 75  1  0
 77 76  1  0
 78 77  1  0
 79 78  1  0
 80 79  1  0
 81 79  2  0
 82 73  1  0
 83 82  1  0
 84 83  1  0
 85 84  2  0
 83 86  1  1
 87 86  1  0
 88 87  2  0
 89 87  1  0
 90 84  1  0
 91 90  1  0
 92 91  1  0
 93 92  2  0
 95 94  1  6
 96 95  1  0
 97 96  2  0
 98 95  1  0
 99 98  1  0
100 99  1  0
101100  1  0
102101  1  0
103102  1  0
104102  2  0
106105  1  0
107106  1  0
108107  2  0
110109  1  0
111110  1  0
112111  2  0
M  END
$$$$
