
     RDKit          3D

148142  0  0  0  0  0  0  0  0999 V2000
  182.8690  125.1090  189.7440 N   0  0  0  0  0  0  0  0  0  0  0  0
  182.4970  124.4340  188.5000 C   0  0  2  0  0  0  0  0  0  0  0  0
  183.2500  124.9850  187.2890 C   0  0  0  0  0  0  0  0  0  0  0  0
  183.4890  124.2560  186.3190 O   0  0  0  0  0  0  0  0  0  0  0  0
  180.9640  124.4920  188.3160 C   0  0  2  0  0  0  0  0  0  0  0  0
  180.4950  123.5270  187.2260 C   0  0  0  0  0  0  0  0  0  0  0  0
  180.4720  125.9060  188.0390 C   0  0  0  0  0  0  0  0  0  0  0  0
  180.7420  122.0840  187.5570 C   0  0  0  0  0  0  0  0  0  0  0  0
  183.6660  126.2460  187.3200 N   0  0  0  0  0  0  0  0  0  0  0  0
  184.3880  126.7990  186.1820 C   0  0  2  0  0  0  0  0  0  0  0  0
  185.7980  127.1750  186.5980 C   0  0  0  0  0  0  0  0  0  0  0  0
  186.2730  128.2830  186.3290 O   0  0  0  0  0  0  0  0  0  0  0  0
  183.6380  127.9820  185.5810 C   0  0  0  0  0  0  0  0  0  0  0  0
  182.5230  127.5400  184.6690 C   0  0  0  0  0  0  0  0  0  0  0  0
  182.6650  126.5600  183.9420 O   0  0  0  0  0  0  0  0  0  0  0  0
  181.4210  128.2660  184.6760 N   0  0  0  0  0  0  0  0  0  0  0  0
  188.5730  125.8000  185.5000 N   0  0  0  0  0  0  0  0  0  0  0  0
  189.4910  125.7980  184.3670 C   0  0  2  0  0  0  0  0  0  0  0  0
  188.8830  126.4310  183.1200 C   0  0  0  0  0  0  0  0  0  0  0  0
  189.2420  126.0600  181.9980 O   0  0  0  0  0  0  0  0  0  0  0  0
  189.9790  124.3810  184.0790 C   0  0  0  0  0  0  0  0  0  0  0  0
  190.8120  123.8220  185.2120 C   0  0  0  0  0  0  0  0  0  0  0  0
  190.4170  122.8650  185.8710 O   0  0  0  0  0  0  0  0  0  0  0  0
  191.9730  124.4250  185.4500 N   0  0  0  0  0  0  0  0  0  0  0  0
  187.9760  127.3810  183.3000 N   0  0  0  0  0  0  0  0  0  0  0  0
  187.3510  128.1130  182.2120 C   0  0  2  0  0  0  0  0  0  0  0  0
  188.1780  129.3860  182.0120 C   0  0  0  0  0  0  0  0  0  0  0  0
  188.8730  129.8380  182.9250 O   0  0  0  0  0  0  0  0  0  0  0  0
  185.8730  128.3850  182.5440 C   0  0  2  0  0  0  0  0  0  0  0  0
  185.2500  127.1420  182.8870 O   0  0  0  0  0  0  0  0  0  0  0  0
  185.0840  128.9620  181.3620 C   0  0  0  0  0  0  0  0  0  0  0  0
  188.1190  129.9410  180.7980 N   0  0  0  0  0  0  0  0  0  0  0  0
  188.8910  131.1100  180.3850 C   0  0  2  0  0  0  0  0  0  0  0  0
  188.8050  132.3570  181.2660 C   0  0  0  0  0  0  0  0  0  0  0  0
  189.8020  132.7310  181.8910 O   0  0  0  0  0  0  0  0  0  0  0  0
  188.4760  131.4840  178.9610 C   0  0  0  0  0  0  0  0  0  0  0  0
  188.7550  130.4240  178.0630 O   0  0  0  0  0  0  0  0  0  0  0  0
  165.2810  128.4050  177.7260 N   0  0  0  0  0  0  0  0  0  0  0  0
  165.3510  127.1980  176.9180 C   0  0  2  0  0  0  0  0  0  0  0  0
  164.1490  126.3310  177.2480 C   0  0  0  0  0  0  0  0  0  0  0  0
  163.5870  126.4340  178.3390 O   0  0  0  0  0  0  0  0  0  0  0  0
  166.6380  126.3970  177.1610 C   0  0  2  0  0  0  0  0  0  0  0  0
  166.7210  126.0320  178.5420 O   0  0  0  0  0  0  0  0  0  0  0  0
  167.8690  127.1980  176.7740 C   0  0  0  0  0  0  0  0  0  0  0  0
  175.2510  118.3000  179.9840 N   0  0  0  0  0  0  0  0  0  0  0  0
  175.4110  119.4700  180.8330 C   0  0  2  0  0  0  0  0  0  0  0  0
  174.0820  119.7540  181.5360 C   0  0  0  0  0  0  0  0  0  0  0  0
  173.0290  119.7070  180.8930 O   0  0  0  0  0  0  0  0  0  0  0  0
  175.8360  120.6550  179.9530 C   0  0  0  0  0  0  0  0  0  0  0  0
  176.4470  121.8220  180.7200 C   0  0  0  0  0  0  0  0  0  0  0  0
  176.5810  121.7790  181.9520 O   0  0  0  0  0  0  0  0  0  0  0  0
  176.8180  122.8120  180.0570 O   0  0  0  0  0  0  0  0  0  0  0  0
  172.6760  122.4420  182.3440 N   0  0  0  0  0  0  0  0  0  0  0  0
  171.9620  123.6050  181.8380 C   0  0  2  0  0  0  0  0  0  0  0  0
  171.2580  123.3320  180.5160 C   0  0  0  0  0  0  0  0  0  0  0  0
  170.7140  124.2630  179.9170 O   0  0  0  0  0  0  0  0  0  0  0  0
  172.9230  124.7790  181.6850 C   0  0  0  0  0  0  0  0  0  0  0  0
  174.0230  124.5340  180.6830 C   0  0  0  0  0  0  0  0  0  0  0  0
  175.0040  125.6810  180.6120 C   0  0  0  0  0  0  0  0  0  0  0  0
  174.8250  126.6660  181.3580 O   0  0  0  0  0  0  0  0  0  0  0  0
  175.9570  125.6000  179.8110 O   0  0  0  0  0  0  0  0  0  0  0  0
  171.2600  122.0860  180.0530 N   0  0  0  0  0  0  0  0  0  0  0  0
  170.6120  121.7020  178.8100 C   0  0  2  0  0  0  0  0  0  0  0  0
  169.2780  121.0200  179.0660 C   0  0  0  0  0  0  0  0  0  0  0  0
  168.2720  121.3480  178.4370 O   0  0  0  0  0  0  0  0  0  0  0  0
  171.5410  120.7730  178.0020 C   0  0  2  0  0  0  0  0  0  0  0  0
  172.8130  121.4930  177.5860 C   0  0  0  0  0  0  0  0  0  0  0  0
  170.8300  120.2180  176.7940 C   0  0  0  0  0  0  0  0  0  0  0  0
  173.7990  120.5660  176.9350 C   0  0  0  0  0  0  0  0  0  0  0  0
  177.1920  129.6560  182.8850 N   0  0  0  0  0  0  0  0  0  0  0  0
  177.9070  129.4920  181.6170 C   0  0  2  0  0  0  0  0  0  0  0  0
  177.1600  130.3880  180.6370 C   0  0  0  0  0  0  0  0  0  0  0  0
  176.2780  129.9710  179.8820 O   0  0  0  0  0  0  0  0  0  0  0  0
  177.9400  128.0380  181.1790 C   0  0  0  0  0  0  0  0  0  0  0  0
  178.8110  127.1900  182.0740 C   0  0  0  0  0  0  0  0  0  0  0  0
  179.8850  127.6170  182.4910 O   0  0  0  0  0  0  0  0  0  0  0  0
  178.3530  125.9830  182.3800 N   0  0  0  0  0  0  0  0  0  0  0  0
  177.5310  131.6570  180.6900 N   0  0  0  0  0  0  0  0  0  0  0  0
  176.9000  132.7240  179.9350 C   0  0  2  0  0  0  0  0  0  0  0  0
  177.0990  132.6230  178.4290 C   0  0  0  0  0  0  0  0  0  0  0  0
  178.1930  132.3250  177.9420 O   0  0  0  0  0  0  0  0  0  0  0  0
  177.4750  134.0410  180.4410 C   0  0  0  0  0  0  0  0  0  0  0  0
  176.8400  135.2880  179.9540 C   0  0  0  0  0  0  0  0  0  0  0  0
  177.8850  136.6410  180.4950 S   0  0  0  0  0  0  0  0  0  0  0  0
  179.1980  136.5620  179.2820 C   0  0  0  0  0  0  0  0  0  0  0  0
  176.0160  132.9040  177.7000 N   0  0  0  0  0  0  0  0  0  0  0  0
  175.9560  132.9630  176.2430 C   0  0  2  0  0  0  0  0  0  0  0  0
  176.5020  131.7950  175.4410 C   0  0  0  0  0  0  0  0  0  0  0  0
  177.6470  131.8430  174.9760 O   0  0  0  0  0  0  0  0  0  0  0  0
  176.5780  134.2570  175.7250 C   0  0  0  0  0  0  0  0  0  0  0  0
  175.6680  135.3990  175.9890 C   0  0  0  0  0  0  0  0  0  0  0  0
  175.8830  136.4240  176.8470 C   0  0  0  0  0  0  0  0  0  0  0  0
  174.3380  135.5780  175.4730 C   0  0  0  0  0  0  0  0  0  0  0  0
  174.8030  137.2640  176.8640 N   0  0  0  0  0  0  0  0  0  0  0  0
  173.8390  136.7650  176.0300 C   0  0  0  0  0  0  0  0  0  0  0  0
  173.5370  134.8690  174.5690 C   0  0  0  0  0  0  0  0  0  0  0  0
  172.5770  137.2580  175.7230 C   0  0  0  0  0  0  0  0  0  0  0  0
  172.2830  135.3580  174.2700 C   0  0  0  0  0  0  0  0  0  0  0  0
  171.8160  136.5420  174.8430 C   0  0  0  0  0  0  0  0  0  0  0  0
  175.6800  130.7470  175.3440 N   0  0  0  0  0  0  0  0  0  0  0  0
  175.8720  129.5130  174.5900 C   0  0  2  0  0  0  0  0  0  0  0  0
  176.5510  129.7410  173.2450 C   0  0  0  0  0  0  0  0  0  0  0  0
  176.0550  130.5000  172.4060 O   0  0  0  0  0  0  0  0  0  0  0  0
  174.4840  128.8960  174.3660 C   0  0  0  0  0  0  0  0  0  0  0  0
  174.4160  127.7860  173.3420 C   0  0  0  0  0  0  0  0  0  0  0  0
  173.0100  127.2630  173.1190 C   0  0  0  0  0  0  0  0  0  0  0  0
  172.0590  127.6950  173.7720 O   0  0  0  0  0  0  0  0  0  0  0  0
  172.8680  126.3440  172.1740 N   0  0  0  0  0  0  0  0  0  0  0  0
  177.6990  129.0960  173.0480 N   0  0  0  0  0  0  0  0  0  0  0  0
  178.4380  129.2310  171.8100 C   0  0  0  0  0  0  0  0  0  0  0  0
  179.8740  129.7060  171.9310 C   0  0  0  0  0  0  0  0  0  0  0  0
  180.7420  129.2140  171.2050 O   0  0  0  0  0  0  0  0  0  0  0  0
  180.1510  130.6530  172.8280 N   0  0  0  0  0  0  0  0  0  0  0  0
  181.5110  131.1670  172.9770 C   0  0  2  0  0  0  0  0  0  0  0  0
  182.1840  130.5740  174.2050 C   0  0  0  0  0  0  0  0  0  0  0  0
  183.1840  129.8570  174.0960 O   0  0  0  0  0  0  0  0  0  0  0  0
  181.5150  132.7040  173.0550 C   0  0  0  0  0  0  0  0  0  0  0  0
  182.9230  133.2210  173.3040 C   0  0  0  0  0  0  0  0  0  0  0  0
  180.9470  133.2950  171.7790 C   0  0  0  0  0  0  0  0  0  0  0  0
  181.6380  130.8650  175.3770 N   0  0  0  0  0  0  0  0  0  0  0  0
  182.1760  130.3700  176.6270 C   0  0  0  0  0  0  0  0  0  0  0  0
  182.9500  131.4120  177.4050 C   0  0  0  0  0  0  0  0  0  0  0  0
  184.1500  131.6200  177.2020 O   0  0  0  0  0  0  0  0  0  0  0  0
  182.2350  132.0670  178.3170 N   0  0  0  0  0  0  0  0  0  0  0  0
  182.7910  133.0940  179.1930 C   0  0  2  0  0  0  0  0  0  0  0  0
  181.7860  133.1830  180.3390 C   0  0  0  0  0  0  0  0  0  0  0  0
  180.7240  133.7860  180.1750 O   0  0  0  0  0  0  0  0  0  0  0  0
  182.9580  134.4180  178.4660 C   0  0  0  0  0  0  0  0  0  0  0  0
  183.5860  135.5160  179.2870 C   0  0  0  0  0  0  0  0  0  0  0  0
  183.8090  136.7500  178.4350 C   0  0  0  0  0  0  0  0  0  0  0  0
  184.4750  137.8520  179.2310 C   0  0  0  0  0  0  0  0  0  0  0  0
  183.5520  138.3900  180.2650 N   0  0  0  0  0  0  0  0  0  0  0  0
  165.8940  122.3000  173.2020 N   0  0  0  0  0  0  0  0  0  0  0  0
  166.3420  123.6360  173.5310 C   0  0  0  0  0  0  0  0  0  0  0  0
  166.9880  124.3010  172.3370 C   0  0  0  0  0  0  0  0  0  0  0  0
  166.9090  125.5230  172.1830 O   0  0  0  0  0  0  0  0  0  0  0  0
  167.6170  123.4920  171.4840 N   0  0  0  0  0  0  0  0  0  0  0  0
  168.2980  123.8810  170.2630 C   0  0  0  0  0  0  0  0  0  0  0  0
  169.3640  124.9400  170.4790 C   0  0  0  0  0  0  0  0  0  0  0  0
  170.0860  124.9570  171.4810 O   0  0  0  0  0  0  0  0  0  0  0  0
  170.6110  129.1160  170.5960 N   0  0  0  0  0  0  0  0  0  0  0  0
  170.1060  130.3150  171.2520 C   0  0  2  0  0  0  0  0  0  0  0  0
  169.3640  131.2080  170.2650 C   0  0  0  0  0  0  0  0  0  0  0  0
  168.4730  131.9670  170.6590 O   0  0  0  0  0  0  0  0  0  0  0  0
  171.2620  131.0610  171.9260 C   0  0  0  0  0  0  0  0  0  0  0  0
  170.8730  132.2940  172.7380 C   0  0  0  0  0  0  0  0  0  0  0  0
  169.7050  131.9640  174.0730 S   0  0  0  0  0  0  0  0  0  0  0  0
  170.7520  131.1380  175.2680 C   0  0  0  0  0  0  0  0  0  0  0  0
  2  1  1  1
  3  2  1  0
  4  3  2  0
  5  2  1  0
  6  5  1  0
  5  7  1  6
  8  6  1  0
  9  3  1  0
 10  9  1  0
 11 10  1  0
 12 11  2  0
 10 13  1  1
 14 13  1  0
 15 14  2  0
 16 14  1  0
 18 17  1  1
 19 18  1  0
 20 19  2  0
 21 18  1  0
 22 21  1  0
 23 22  2  0
 24 22  1  0
 25 19  1  0
 26 25  1  1
 27 26  1  0
 28 27  2  0
 29 26  1  0
 30 29  1  0
 29 31  1  6
 32 27  1  0
 33 32  1  0
 34 33  1  0
 35 34  2  0
 33 36  1  6
 37 36  1  0
 39 38  1  1
 40 39  1  0
 41 40  2  0
 42 39  1  0
 43 42  1  0
 42 44  1  1
 46 45  1  6
 47 46  1  0
 48 47  2  0
 49 46  1  0
 50 49  1  0
 51 50  2  0
 52 50  1  0
 54 53  1  6
 55 54  1  0
 56 55  2  0
 57 54  1  0
 58 57  1  0
 59 58  1  0
 60 59  2  0
 61 59  1  0
 62 55  1  0
 63 62  1  1
 64 63  1  0
 65 64  2  0
 66 63  1  0
 67 66  1  0
 66 68  1  6
 69 67  1  0
 71 70  1  1
 72 71  1  0
 73 72  2  0
 74 71  1  0
 75 74  1  0
 76 75  2  0
 77 75  1  0
 78 72  1  0
 79 78  1  0
 80 79  1  0
 81 80  2  0
 79 82  1  1
 83 82  1  0
 84 83  1  0
 85 84  1  0
 86 80  1  0
 87 86  1  0
 88 87  1  0
 89 88  2  0
 87 90  1  6
 91 90  1  0
 92 91  2  0
 93 91  1  0
 94 92  1  0
 95 93  2  0
 95 94  1  0
 96 93  1  0
 97 95  1  0
 98 96  2  0
 99 98  1  0
 99 97  2  0
100 88  1  0
101100  1  0
102101  1  0
103102  2  0
101104  1  6
105104  1  0
106105  1  0
107106  2  0
108106  1  0
109102  1  0
110109  1  0
111110  1  0
112111  2  0
113111  1  0
114113  1  1
115114  1  0
116115  2  0
117114  1  0
118117  1  0
119117  1  0
120115  1  0
121120  1  0
122121  1  0
123122  2  0
124122  1  0
125124  1  0
126125  1  0
127126  2  0
125128  1  6
129128  1  0
130129  1  0
131130  1  0
132131  1  0
134133  1  0
135134  1  0
136135  2  0
137135  1  0
138137  1  0
139138  1  0
140139  2  0
142141  1  6
143142  1  0
144143  2  0
145142  1  0
146145  1  0
147146  1  0
148147  1  0
M  END
$$$$
