
     RDKit          3D

 96 94  0  0  0  0  0  0  0  0999 V2000
   -6.8560   45.2410  -22.1560 N   0  0  0  0  0  0  0  0  0  0  0  0
   -6.0120   44.1150  -22.5470 C   0  0  2  0  0  0  0  0  0  0  0  0
   -6.8110   42.8080  -22.6200 C   0  0  0  0  0  0  0  0  0  0  0  0
   -6.2520   41.7610  -22.9380 O   0  0  0  0  0  0  0  0  0  0  0  0
   -4.8030   43.9920  -21.5970 C   0  0  0  0  0  0  0  0  0  0  0  0
   -5.1600   43.8220  -20.1300 C   0  0  0  0  0  0  0  0  0  0  0  0
   -5.5460   42.6950  -19.7390 O   0  0  0  0  0  0  0  0  0  0  0  0
   -5.0440   44.8170  -19.3710 O   0  0  0  0  0  0  0  0  0  0  0  0
   -8.1170   42.8790  -22.3270 N   0  0  0  0  0  0  0  0  0  0  0  0
   -9.0450   41.7570  -22.3510 C   0  0  2  0  0  0  0  0  0  0  0  0
   -9.2890   41.3330  -23.8200 C   0  0  0  0  0  0  0  0  0  0  0  0
   -9.3560   42.1980  -24.6850 O   0  0  0  0  0  0  0  0  0  0  0  0
  -10.3310   42.1740  -21.5810 C   0  0  2  0  0  0  0  0  0  0  0  0
  -10.0870   42.2370  -20.0520 C   0  0  0  0  0  0  0  0  0  0  0  0
  -11.5120   41.2980  -21.9540 C   0  0  0  0  0  0  0  0  0  0  0  0
  -10.9230   43.2660  -19.2600 C   0  0  0  0  0  0  0  0  0  0  0  0
   -9.3380   40.0100  -24.1000 N   0  0  0  0  0  0  0  0  0  0  0  0
   -9.5590   39.4560  -25.4380 C   0  0  2  0  0  0  0  0  0  0  0  0
  -10.9000   38.7380  -25.5390 C   0  0  0  0  0  0  0  0  0  0  0  0
  -11.2510   37.9620  -24.6450 O   0  0  0  0  0  0  0  0  0  0  0  0
   -8.4240   38.5190  -25.8190 C   0  0  0  0  0  0  0  0  0  0  0  0
  -11.6690   39.0310  -26.6090 N   0  0  0  0  0  0  0  0  0  0  0  0
  -13.0000   38.4600  -26.8350 C   0  0  2  0  0  0  0  0  0  0  0  0
  -13.0860   37.7360  -28.1820 C   0  0  0  0  0  0  0  0  0  0  0  0
  -13.6230   36.6240  -28.2480 O   0  0  0  0  0  0  0  0  0  0  0  0
  -14.0980   39.5470  -26.6570 C   0  0  0  0  0  0  0  0  0  0  0  0
  -15.4360   39.1210  -27.2450 C   0  0  0  0  0  0  0  0  0  0  0  0
  -14.2600   39.9240  -25.1900 C   0  0  0  0  0  0  0  0  0  0  0  0
  -12.5770   38.3720  -29.2500 N   0  0  0  0  0  0  0  0  0  0  0  0
  -12.6150   37.7760  -30.5800 C   0  0  2  0  0  0  0  0  0  0  0  0
  -11.2810   37.2330  -31.0410 C   0  0  0  0  0  0  0  0  0  0  0  0
  -10.2250   37.7280  -30.6480 O   0  0  0  0  0  0  0  0  0  0  0  0
  -13.2020   38.7270  -31.6230 C   0  0  0  0  0  0  0  0  0  0  0  0
  -14.5810   39.2800  -31.3420 C   0  0  0  0  0  0  0  0  0  0  0  0
  -15.0440   40.0570  -32.5100 C   0  0  0  0  0  0  0  0  0  0  0  0
  -15.6090   38.1570  -31.1410 C   0  0  0  0  0  0  0  0  0  0  0  0
  -11.3510   36.1770  -31.8650 N   0  0  0  0  0  0  0  0  0  0  0  0
  -10.1730   35.4920  -32.3810 C   0  0  2  0  0  0  0  0  0  0  0  0
  -10.2800   35.0770  -33.8700 C   0  0  0  0  0  0  0  0  0  0  0  0
  -11.3890   34.9680  -34.3960 O   0  0  0  0  0  0  0  0  0  0  0  0
   -9.8190   34.2790  -31.4910 C   0  0  0  0  0  0  0  0  0  0  0  0
   -9.1710   34.5460  -30.1240 C   0  0  0  0  0  0  0  0  0  0  0  0
   -8.9610   33.2500  -29.3620 C   0  0  0  0  0  0  0  0  0  0  0  0
   -7.8110   35.2740  -30.2530 C   0  0  0  0  0  0  0  0  0  0  0  0
   -9.1390   34.8660  -34.5670 N   0  0  0  0  0  0  0  0  0  0  0  0
   -9.1950   34.5280  -36.0060 C   0  0  2  0  0  0  0  0  0  0  0  0
  -10.0140   33.2820  -36.3250 C   0  0  0  0  0  0  0  0  0  0  0  0
  -11.1070   33.4260  -36.8740 O   0  0  0  0  0  0  0  0  0  0  0  0
   -7.7180   34.3940  -36.4080 C   0  0  0  0  0  0  0  0  0  0  0  0
   -6.9610   35.1350  -35.3730 C   0  0  0  0  0  0  0  0  0  0  0  0
   -7.7460   34.9870  -34.1090 C   0  0  0  0  0  0  0  0  0  0  0  0
   -9.5240   32.0760  -35.9340 N   0  0  0  0  0  0  0  0  0  0  0  0
  -10.1550   30.7650  -36.1820 C   0  0  2  0  0  0  0  0  0  0  0  0
  -11.3320   30.5010  -35.2280 C   0  0  0  0  0  0  0  0  0  0  0  0
  -11.4100   29.4550  -34.5690 O   0  0  0  0  0  0  0  0  0  0  0  0
   -9.1150   29.6160  -36.1720 C   0  0  0  0  0  0  0  0  0  0  0  0
   -9.5170   28.4130  -37.0200 C   0  0  0  0  0  0  0  0  0  0  0  0
   -8.6040   27.2000  -36.9740 C   0  0  0  0  0  0  0  0  0  0  0  0
   -8.3370   26.6900  -35.8610 O   0  0  0  0  0  0  0  0  0  0  0  0
   -8.1850   26.7360  -38.0600 O   0  0  0  0  0  0  0  0  0  0  0  0
  -12.2510   31.4810  -35.1810 N   0  0  0  0  0  0  0  0  0  0  0  0
  -13.4610   31.5030  -34.3630 C   0  0  2  0  0  0  0  0  0  0  0  0
  -14.5010   32.4630  -34.9410 C   0  0  0  0  0  0  0  0  0  0  0  0
  -15.6930   32.1270  -34.9640 O   0  0  0  0  0  0  0  0  0  0  0  0
  -13.1320   31.9810  -32.9370 C   0  0  0  0  0  0  0  0  0  0  0  0
  -12.5740   30.9210  -32.0210 C   0  0  0  0  0  0  0  0  0  0  0  0
  -13.4120   30.0090  -31.3870 C   0  0  0  0  0  0  0  0  0  0  0  0
  -11.2110   30.8550  -31.7510 C   0  0  0  0  0  0  0  0  0  0  0  0
  -12.9030   29.0350  -30.5340 C   0  0  0  0  0  0  0  0  0  0  0  0
  -10.6900   29.8800  -30.9080 C   0  0  0  0  0  0  0  0  0  0  0  0
  -11.5410   28.9780  -30.2970 C   0  0  0  0  0  0  0  0  0  0  0  0
  -11.0410   28.0280  -29.4510 O   0  0  0  0  0  0  0  0  0  0  0  0
   -7.6110   45.5630  -33.0620 N   0  0  0  0  0  0  0  0  0  0  0  0
   -6.3000   45.4000  -32.4300 C   0  0  2  0  0  0  0  0  0  0  0  0
   -5.5380   46.7280  -32.4430 C   0  0  0  0  0  0  0  0  0  0  0  0
   -5.0490   47.1390  -33.4970 O   0  0  0  0  0  0  0  0  0  0  0  0
   -5.4770   44.2720  -33.0400 C   0  0  0  0  0  0  0  0  0  0  0  0
   -4.4870   43.7040  -32.0400 C   0  0  0  0  0  0  0  0  0  0  0  0
   -4.1680   44.3280  -31.0070 O   0  0  0  0  0  0  0  0  0  0  0  0
   -3.9790   42.5120  -32.3650 N   0  0  0  0  0  0  0  0  0  0  0  0
   -0.2190   45.4960  -24.3750 N   0  0  0  0  0  0  0  0  0  0  0  0
   -1.3170   44.8530  -25.1030 C   0  0  2  0  0  0  0  0  0  0  0  0
   -2.5850   45.6500  -24.8220 C   0  0  0  0  0  0  0  0  0  0  0  0
   -2.8420   45.9940  -23.6650 O   0  0  0  0  0  0  0  0  0  0  0  0
   -1.4880   43.4030  -24.6180 C   0  0  0  0  0  0  0  0  0  0  0  0
   -2.4160   42.4820  -25.4200 C   0  0  0  0  0  0  0  0  0  0  0  0
   -2.0390   41.0380  -25.2100 C   0  0  0  0  0  0  0  0  0  0  0  0
   -3.8320   42.5860  -24.9590 C   0  0  0  0  0  0  0  0  0  0  0  0
   -6.8290   46.1270  -26.7450 N   0  0  0  0  0  0  0  0  0  0  0  0
   -7.8270   45.7270  -27.7420 C   0  0  2  0  0  0  0  0  0  0  0  0
   -9.0860   46.5700  -27.6570 C   0  0  0  0  0  0  0  0  0  0  0  0
   -9.8260   46.4950  -26.6710 O   0  0  0  0  0  0  0  0  0  0  0  0
   -8.1990   44.2340  -27.6310 C   0  0  0  0  0  0  0  0  0  0  0  0
   -7.0600   43.2320  -27.6420 C   0  0  0  0  0  0  0  0  0  0  0  0
   -7.5440   41.8630  -27.2920 C   0  0  0  0  0  0  0  0  0  0  0  0
   -6.4330   43.1380  -29.0010 C   0  0  0  0  0  0  0  0  0  0  0  0
  2  1  1  1
  3  2  1  0
  4  3  2  0
  5  2  1  0
  6  5  1  0
  7  6  2  0
  8  6  1  0
  9  3  1  0
 10  9  1  6
 11 10  1  0
 12 11  2  0
 13 10  1  0
 14 13  1  0
 13 15  1  1
 16 14  1  0
 17 11  1  0
 18 17  1  0
 19 18  1  0
 20 19  2  0
 18 21  1  1
 22 19  1  0
 23 22  1  6
 24 23  1  0
 25 24  2  0
 26 23  1  0
 27 26  1  0
 28 26  1  0
 29 24  1  0
 30 29  1  0
 31 30  1  0
 32 31  2  0
 30 33  1  6
 34 33  1  0
 35 34  1  0
 36 34  1  0
 37 31  1  0
 38 37  1  0
 39 38  1  0
 40 39  2  0
 38 41  1  1
 42 41  1  0
 43 42  1  0
 44 42  1  0
 45 39  1  0
 46 45  1  0
 46 47  1  1
 48 47  2  0
 49 46  1  0
 50 49  1  0
 51 50  1  0
 51 45  1  0
 52 47  1  0
 53 52  1  0
 54 53  1  0
 55 54  2  0
 53 56  1  1
 57 56  1  0
 58 57  1  0
 59 58  2  0
 60 58  1  0
 61 54  1  0
 62 61  1  0
 63 62  1  0
 64 63  2  0
 62 65  1  1
 66 65  1  0
 67 66  2  0
 68 66  1  0
 69 67  1  0
 70 68  2  0
 71 69  2  0
 71 70  1  0
 72 71  1  0
 74 73  1  6
 75 74  1  0
 76 75  2  0
 77 74  1  0
 78 77  1  0
 79 78  2  0
 80 78  1  0
 82 81  1  1
 83 82  1  0
 84 83  2  0
 85 82  1  0
 86 85  1  0
 87 86  1  0
 88 86  1  0
 90 89  1  1
 91 90  1  0
 92 91  2  0
 93 90  1  0
 94 93  1  0
 95 94  1  0
 96 94  1  0
M  END
$$$$
