
     RDKit          3D

159156  0  0  0  0  0  0  0  0999 V2000
  -12.6250  -28.6080   64.1870 N   0  0  0  0  0  0  0  0  0  0  0  0
  -11.2320  -28.9290   63.8860 C   0  0  2  0  0  0  0  0  0  0  0  0
  -10.4550  -27.5980   63.9020 C   0  0  0  0  0  0  0  0  0  0  0  0
  -10.7270  -26.7230   63.0770 O   0  0  0  0  0  0  0  0  0  0  0  0
  -11.1470  -29.6090   62.5010 C   0  0  0  0  0  0  0  0  0  0  0  0
  -11.6160  -31.0710   62.4710 C   0  0  0  0  0  0  0  0  0  0  0  0
  -12.7470  -31.5860   63.0530 C   0  0  0  0  0  0  0  0  0  0  0  0
  -10.9700  -32.1840   61.8240 C   0  0  0  0  0  0  0  0  0  0  0  0
  -12.8350  -32.9390   62.8180 N   0  0  0  0  0  0  0  0  0  0  0  0
  -11.7610  -33.3290   62.0650 C   0  0  0  0  0  0  0  0  0  0  0  0
   -9.8120  -32.3200   61.0510 C   0  0  0  0  0  0  0  0  0  0  0  0
  -11.4220  -34.5900   61.5730 C   0  0  0  0  0  0  0  0  0  0  0  0
   -9.4660  -33.5710   60.5730 C   0  0  0  0  0  0  0  0  0  0  0  0
  -10.2710  -34.6920   60.8310 C   0  0  0  0  0  0  0  0  0  0  0  0
   -6.9370  -25.2570   63.7210 N   0  0  0  0  0  0  0  0  0  0  0  0
   -5.6420  -25.2890   63.0250 C   0  0  2  0  0  0  0  0  0  0  0  0
   -4.9200  -23.9500   63.1680 C   0  0  0  0  0  0  0  0  0  0  0  0
   -5.5510  -22.9300   63.3790 O   0  0  0  0  0  0  0  0  0  0  0  0
   -5.8310  -25.6310   61.5300 C   0  0  2  0  0  0  0  0  0  0  0  0
   -6.8070  -26.6670   61.3880 O   0  0  0  0  0  0  0  0  0  0  0  0
   -4.5440  -26.1100   60.9010 C   0  0  0  0  0  0  0  0  0  0  0  0
   -3.5940  -23.9760   63.0740 N   0  0  0  0  0  0  0  0  0  0  0  0
   -2.7610  -22.7650   63.1050 C   0  0  2  0  0  0  0  0  0  0  0  0
   -2.1880  -22.4870   61.7130 C   0  0  0  0  0  0  0  0  0  0  0  0
   -1.9810  -23.4180   60.9510 O   0  0  0  0  0  0  0  0  0  0  0  0
   -1.6140  -22.8980   64.1360 C   0  0  0  0  0  0  0  0  0  0  0  0
   -0.5980  -23.9720   63.7370 C   0  0  0  0  0  0  0  0  0  0  0  0
   -0.9180  -21.5540   64.3370 C   0  0  0  0  0  0  0  0  0  0  0  0
   -1.9310  -21.2220   61.3800 N   0  0  0  0  0  0  0  0  0  0  0  0
   -1.3250  -20.8720   60.0870 C   0  0  2  0  0  0  0  0  0  0  0  0
   -0.4960  -19.5920   60.1980 C   0  0  0  0  0  0  0  0  0  0  0  0
   -0.7910  -18.7290   61.0260 O   0  0  0  0  0  0  0  0  0  0  0  0
   -2.4310  -20.7280   59.0370 C   0  0  0  0  0  0  0  0  0  0  0  0
   -2.0720  -20.9500   57.5730 C   0  0  0  0  0  0  0  0  0  0  0  0
   -0.9140  -21.6320   57.1650 C   0  0  0  0  0  0  0  0  0  0  0  0
   -2.9530  -20.5250   56.5790 C   0  0  0  0  0  0  0  0  0  0  0  0
   -0.6370  -21.8350   55.8140 C   0  0  0  0  0  0  0  0  0  0  0  0
   -2.6870  -20.7290   55.2310 C   0  0  0  0  0  0  0  0  0  0  0  0
   -1.5330  -21.3830   54.8450 C   0  0  0  0  0  0  0  0  0  0  0  0
   -1.2880  -21.5770   53.4950 O   0  0  0  0  0  0  0  0  0  0  0  0
    1.4260  -16.5100   55.0910 N   0  0  0  0  0  0  0  0  0  0  0  0
    0.4070  -16.7800   54.0630 C   0  0  2  0  0  0  0  0  0  0  0  0
   -1.0080  -16.8850   54.6630 C   0  0  0  0  0  0  0  0  0  0  0  0
   -1.1260  -17.2310   55.8480 O   0  0  0  0  0  0  0  0  0  0  0  0
    0.7160  -18.0930   53.2680 C   0  0  0  0  0  0  0  0  0  0  0  0
    1.8790  -17.8920   52.2930 C   0  0  0  0  0  0  0  0  0  0  0  0
    1.0030  -19.2760   54.1970 C   0  0  0  0  0  0  0  0  0  0  0  0
   -2.0740  -16.5780   53.8960 N   0  0  0  0  0  0  0  0  0  0  0  0
   -2.0230  -16.0000   52.5480 C   0  0  2  0  0  0  0  0  0  0  0  0
   -2.6110  -14.5870   52.5140 C   0  0  0  0  0  0  0  0  0  0  0  0
   -3.1930  -14.1300   53.4970 O   0  0  0  0  0  0  0  0  0  0  0  0
   -2.9280  -16.9420   51.7570 C   0  0  0  0  0  0  0  0  0  0  0  0
   -3.9840  -17.3360   52.7360 C   0  0  0  0  0  0  0  0  0  0  0  0
   -3.3940  -17.2030   54.1250 C   0  0  0  0  0  0  0  0  0  0  0  0
   -5.1360  -11.5570   51.7580 N   0  0  0  0  0  0  0  0  0  0  0  0
   -6.5770  -11.3290   51.6340 C   0  0  2  0  0  0  0  0  0  0  0  0
   -6.9020   -9.8430   51.7690 C   0  0  0  0  0  0  0  0  0  0  0  0
   -6.1810   -9.1000   52.4340 O   0  0  0  0  0  0  0  0  0  0  0  0
   -7.3690  -12.1470   52.6680 C   0  0  0  0  0  0  0  0  0  0  0  0
   -7.0510  -11.8190   54.0950 C   0  0  0  0  0  0  0  0  0  0  0  0
   -7.3700  -10.6750   54.7650 C   0  0  0  0  0  0  0  0  0  0  0  0
   -6.3610  -12.6490   55.0350 C   0  0  0  0  0  0  0  0  0  0  0  0
   -6.9160  -10.7330   56.0520 N   0  0  0  0  0  0  0  0  0  0  0  0
   -6.2920  -11.9330   56.2490 C   0  0  0  0  0  0  0  0  0  0  0  0
   -5.7910  -13.9260   54.9710 C   0  0  0  0  0  0  0  0  0  0  0  0
   -5.6720  -12.4440   57.3860 C   0  0  0  0  0  0  0  0  0  0  0  0
   -5.1740  -14.4340   56.1060 C   0  0  0  0  0  0  0  0  0  0  0  0
   -5.1170  -13.6910   57.2950 C   0  0  0  0  0  0  0  0  0  0  0  0
  -14.4420  -26.1760   60.5300 N   0  0  0  0  0  0  0  0  0  0  0  0
  -12.9970  -25.9520   60.6050 C   0  0  2  0  0  0  0  0  0  0  0  0
  -12.6750  -24.5000   60.9600 C   0  0  0  0  0  0  0  0  0  0  0  0
  -13.1270  -23.5830   60.2790 O   0  0  0  0  0  0  0  0  0  0  0  0
  -12.3200  -26.3220   59.2820 C   0  0  0  0  0  0  0  0  0  0  0  0
  -12.6740  -27.7000   58.7050 C   0  0  0  0  0  0  0  0  0  0  0  0
  -11.7040  -28.8320   59.0270 C   0  0  0  0  0  0  0  0  0  0  0  0
  -10.6220  -28.6330   59.5760 O   0  0  0  0  0  0  0  0  0  0  0  0
  -12.0970  -30.0390   58.6510 N   0  0  0  0  0  0  0  0  0  0  0  0
  -11.9050  -24.3120   62.0340 N   0  0  0  0  0  0  0  0  0  0  0  0
  -11.4090  -23.0030   62.4510 C   0  0  2  0  0  0  0  0  0  0  0  0
   -9.9120  -22.9780   62.2690 C   0  0  0  0  0  0  0  0  0  0  0  0
   -9.2640  -24.0100   62.3950 O   0  0  0  0  0  0  0  0  0  0  0  0
  -11.7490  -22.7410   63.9150 C   0  0  0  0  0  0  0  0  0  0  0  0
  -11.4350  -21.3250   64.3910 C   0  0  0  0  0  0  0  0  0  0  0  0
  -12.1860  -20.9210   65.6480 C   0  0  0  0  0  0  0  0  0  0  0  0
  -13.2400  -21.5170   65.9570 O   0  0  0  0  0  0  0  0  0  0  0  0
  -11.7250  -19.9830   66.3290 O   0  0  0  0  0  0  0  0  0  0  0  0
   -9.3660  -21.8020   61.9690 N   0  0  0  0  0  0  0  0  0  0  0  0
   -7.9310  -21.6440   61.7190 C   0  0  2  0  0  0  0  0  0  0  0  0
   -7.3930  -20.3570   62.3410 C   0  0  0  0  0  0  0  0  0  0  0  0
   -7.6090  -19.2830   61.7900 O   0  0  0  0  0  0  0  0  0  0  0  0
   -7.6260  -21.6690   60.2060 C   0  0  2  0  0  0  0  0  0  0  0  0
   -8.1730  -22.9780   59.6130 C   0  0  0  0  0  0  0  0  0  0  0  0
   -6.1290  -21.4870   59.9620 C   0  0  0  0  0  0  0  0  0  0  0  0
   -7.7850  -23.2820   58.1950 C   0  0  0  0  0  0  0  0  0  0  0  0
   -5.1140  -17.5130   62.8970 N   0  0  0  0  0  0  0  0  0  0  0  0
   -4.1610  -16.8300   62.0400 C   0  0  2  0  0  0  0  0  0  0  0  0
   -3.2120  -16.1040   62.9720 C   0  0  0  0  0  0  0  0  0  0  0  0
   -3.3780  -14.9270   63.2690 O   0  0  0  0  0  0  0  0  0  0  0  0
   -4.8930  -15.8820   61.0930 C   0  0  0  0  0  0  0  0  0  0  0  0
   -6.0230  -16.5860   60.3410 C   0  0  0  0  0  0  0  0  0  0  0  0
   -6.9310  -15.6020   59.6250 C   0  0  0  0  0  0  0  0  0  0  0  0
   -5.4630  -17.6390   59.3900 C   0  0  0  0  0  0  0  0  0  0  0  0
  -13.6750  -17.0380   49.1440 N   0  0  0  0  0  0  0  0  0  0  0  0
  -13.9010  -16.0750   50.2320 C   0  0  2  0  0  0  0  0  0  0  0  0
  -13.9110  -16.8200   51.5700 C   0  0  0  0  0  0  0  0  0  0  0  0
  -14.1070  -18.0310   51.6210 O   0  0  0  0  0  0  0  0  0  0  0  0
  -15.2370  -15.3150   50.0410 C   0  0  0  0  0  0  0  0  0  0  0  0
  -15.3570  -14.5100   48.7440 C   0  0  0  0  0  0  0  0  0  0  0  0
  -15.3040  -13.1150   48.7450 C   0  0  0  0  0  0  0  0  0  0  0  0
  -15.5400  -15.1500   47.5170 C   0  0  0  0  0  0  0  0  0  0  0  0
  -15.4130  -12.3890   47.5630 C   0  0  0  0  0  0  0  0  0  0  0  0
  -15.6430  -14.4360   46.3340 C   0  0  0  0  0  0  0  0  0  0  0  0
  -15.5840  -13.0580   46.3630 C   0  0  0  0  0  0  0  0  0  0  0  0
  -15.6890  -12.3670   45.1810 O   0  0  0  0  0  0  0  0  0  0  0  0
  -13.7280  -16.0720   52.6510 N   0  0  0  0  0  0  0  0  0  0  0  0
  -13.4950  -16.6360   53.9780 C   0  0  2  0  0  0  0  0  0  0  0  0
  -13.9740  -15.6510   55.0520 C   0  0  0  0  0  0  0  0  0  0  0  0
  -13.8230  -14.4410   54.8930 O   0  0  0  0  0  0  0  0  0  0  0  0
  -11.9820  -16.9510   54.1260 C   0  0  0  0  0  0  0  0  0  0  0  0
  -11.4940  -16.8540   55.5700 C   0  0  0  0  0  0  0  0  0  0  0  0
  -11.6520  -18.3120   53.5160 C   0  0  0  0  0  0  0  0  0  0  0  0
  -13.5110  -14.0160   58.6830 N   0  0  0  0  0  0  0  0  0  0  0  0
  -12.5710  -13.7590   59.7670 C   0  0  2  0  0  0  0  0  0  0  0  0
  -13.3520  -13.4500   61.0280 C   0  0  0  0  0  0  0  0  0  0  0  0
  -14.3380  -12.7200   60.9980 O   0  0  0  0  0  0  0  0  0  0  0  0
  -11.6320  -12.6120   59.4130 C   0  0  0  0  0  0  0  0  0  0  0  0
  -10.7440  -12.8630   58.1910 C   0  0  0  0  0  0  0  0  0  0  0  0
   -9.8430  -11.6700   57.9190 C   0  0  0  0  0  0  0  0  0  0  0  0
   -9.9120  -14.1240   58.3730 C   0  0  0  0  0  0  0  0  0  0  0  0
  -10.0530  -17.7380   61.2460 N   0  0  0  0  0  0  0  0  0  0  0  0
  -10.8980  -17.9050   60.0710 C   0  0  2  0  0  0  0  0  0  0  0  0
  -11.8630  -19.0670   60.2800 C   0  0  0  0  0  0  0  0  0  0  0  0
  -11.4980  -20.0730   60.8740 O   0  0  0  0  0  0  0  0  0  0  0  0
  -10.0340  -18.1610   58.8490 C   0  0  0  0  0  0  0  0  0  0  0  0
  -10.7990  -18.7620   57.8320 O   0  0  0  0  0  0  0  0  0  0  0  0
  -13.0860  -18.9220   59.7800 N   0  0  0  0  0  0  0  0  0  0  0  0
  -14.1150  -19.9580   59.9100 C   0  0  2  0  0  0  0  0  0  0  0  0
  -14.9000  -20.1480   58.6160 C   0  0  0  0  0  0  0  0  0  0  0  0
  -14.9890  -19.2340   57.7980 O   0  0  0  0  0  0  0  0  0  0  0  0
  -15.1030  -19.6440   61.0480 C   0  0  0  0  0  0  0  0  0  0  0  0
  -14.3810  -19.6310   62.3840 C   0  0  0  0  0  0  0  0  0  0  0  0
  -15.8260  -18.3250   60.8130 C   0  0  0  0  0  0  0  0  0  0  0  0
  -15.4750  -21.3360   58.4460 N   0  0  0  0  0  0  0  0  0  0  0  0
  -16.2820  -21.6520   57.2670 C   0  0  2  0  0  0  0  0  0  0  0  0
  -17.6420  -20.9580   57.3580 C   0  0  0  0  0  0  0  0  0  0  0  0
  -18.1430  -20.4160   56.3660 O   0  0  0  0  0  0  0  0  0  0  0  0
  -16.4810  -23.1690   57.1380 C   0  0  0  0  0  0  0  0  0  0  0  0
  -15.1950  -23.9770   56.9570 C   0  0  0  0  0  0  0  0  0  0  0  0
  -15.4290  -25.4830   56.9100 C   0  0  0  0  0  0  0  0  0  0  0  0
  -16.2840  -26.0250   57.6110 O   0  0  0  0  0  0  0  0  0  0  0  0
  -14.6540  -26.1680   56.0850 N   0  0  0  0  0  0  0  0  0  0  0  0
   -9.9250  -14.0610   49.1600 N   0  0  0  0  0  0  0  0  0  0  0  0
   -8.5990  -14.6730   49.0890 C   0  0  2  0  0  0  0  0  0  0  0  0
   -8.0770  -14.6110   47.6560 C   0  0  0  0  0  0  0  0  0  0  0  0
   -8.8440  -14.8390   46.7220 O   0  0  0  0  0  0  0  0  0  0  0  0
   -8.6320  -16.1660   49.5110 C   0  0  2  0  0  0  0  0  0  0  0  0
   -9.3770  -16.3700   50.8390 C   0  0  0  0  0  0  0  0  0  0  0  0
   -7.2160  -16.7500   49.5840 C   0  0  0  0  0  0  0  0  0  0  0  0
   -8.7630  -15.6660   52.0260 C   0  0  0  0  0  0  0  0  0  0  0  0
  2  1  1  6
  3  2  1  0
  4  3  2  0
  5  2  1  0
  6  5  1  0
  7  6  2  0
  8  6  1  0
  9  7  1  0
 10  9  1  0
 10  8  2  0
 11  8  1  0
 12 10  1  0
 13 11  2  0
 14 12  2  0
 14 13  1  0
 16 15  1  1
 17 16  1  0
 18 17  2  0
 19 16  1  0
 20 19  1  0
 19 21  1  1
 22 17  1  0
 23 22  1  6
 24 23  1  0
 25 24  2  0
 26 23  1  0
 27 26  1  0
 28 26  1  0
 29 24  1  0
 30 29  1  0
 31 30  1  0
 32 31  2  0
 30 33  1  6
 34 33  1  0
 35 34  2  0
 36 34  1  0
 37 35  1  0
 38 36  2  0
 39 37  2  0
 39 38  1  0
 40 39  1  0
 42 41  1  1
 43 42  1  0
 44 43  2  0
 45 42  1  0
 46 45  1  0
 47 45  1  0
 48 43  1  0
 49 48  1  0
 49 50  1  1
 51 50  2  0
 52 49  1  0
 53 52  1  0
 54 53  1  0
 54 48  1  0
 56 55  1  1
 57 56  1  0
 58 57  2  0
 59 56  1  0
 60 59  1  0
 61 60  2  0
 62 60  1  0
 63 61  1  0
 64 62  2  0
 64 63  1  0
 65 62  1  0
 66 64  1  0
 67 65  2  0
 68 66  2  0
 68 67  1  0
 70 69  1  6
 71 70  1  0
 72 71  2  0
 73 70  1  0
 74 73  1  0
 75 74  1  0
 76 75  2  0
 77 75  1  0
 78 71  1  0
 79 78  1  0
 80 79  1  0
 81 80  2  0
 79 82  1  1
 83 82  1  0
 84 83  1  0
 85 84  2  0
 86 84  1  0
 87 80  1  0
 88 87  1  6
 89 88  1  0
 90 89  2  0
 91 88  1  0
 92 91  1  0
 91 93  1  1
 94 92  1  0
 96 95  1  1
 97 96  1  0
 98 97  2  0
 99 96  1  0
100 99  1  0
101100  1  0
102100  1  0
104103  1  6
105104  1  0
106105  2  0
107104  1  0
108107  1  0
109108  2  0
110108  1  0
111109  1  0
112110  2  0
113112  1  0
113111  2  0
114113  1  0
115105  1  0
116115  1  6
117116  1  0
118117  2  0
119116  1  0
120119  1  0
121119  1  0
123122  1  6
124123  1  0
125124  2  0
126123  1  0
127126  1  0
128127  1  0
129127  1  0
131130  1  1
132131  1  0
133132  2  0
134131  1  0
135134  1  0
136132  1  0
137136  1  6
138137  1  0
139138  2  0
140137  1  0
141140  1  0
142140  1  0
143138  1  0
144143  1  0
145144  1  0
146145  2  0
144147  1  1
148147  1  0
149148  1  0
150149  2  0
151149  1  0
153152  1  6
154153  1  0
155154  2  0
156153  1  0
157156  1  0
156158  1  1
159157  1  0
M  END
$$$$
