
     RDKit          3D

116113  0  0  0  0  0  0  0  0999 V2000
  -46.7750  -43.3880  -21.9400 N   0  0  0  0  0  0  0  0  0  0  0  0
  -45.9860  -42.2120  -21.6090 C   0  0  2  0  0  0  0  0  0  0  0  0
  -46.4460  -41.6180  -20.2840 C   0  0  0  0  0  0  0  0  0  0  0  0
  -47.6250  -41.6870  -19.9270 O   0  0  0  0  0  0  0  0  0  0  0  0
  -46.0920  -41.1500  -22.7060 C   0  0  0  0  0  0  0  0  0  0  0  0
  -45.5180  -41.5710  -24.0440 C   0  0  0  0  0  0  0  0  0  0  0  0
  -46.5870  -41.7470  -25.1020 C   0  0  0  0  0  0  0  0  0  0  0  0
  -47.7840  -41.7240  -24.8040 O   0  0  0  0  0  0  0  0  0  0  0  0
  -46.1600  -41.9200  -26.3500 N   0  0  0  0  0  0  0  0  0  0  0  0
  -45.4960  -41.0310  -19.5560 N   0  0  0  0  0  0  0  0  0  0  0  0
  -45.7720  -40.3440  -18.3010 C   0  0  2  0  0  0  0  0  0  0  0  0
  -45.5860  -38.8370  -18.4150 C   0  0  0  0  0  0  0  0  0  0  0  0
  -45.6330  -38.1330  -17.3990 O   0  0  0  0  0  0  0  0  0  0  0  0
  -44.8830  -40.8970  -17.1850 C   0  0  0  0  0  0  0  0  0  0  0  0
  -43.4010  -40.8110  -17.5160 C   0  0  0  0  0  0  0  0  0  0  0  0
  -43.0400  -40.1860  -18.5370 O   0  0  0  0  0  0  0  0  0  0  0  0
  -42.5910  -41.3650  -16.7440 O   0  0  0  0  0  0  0  0  0  0  0  0
  -45.3630  -38.3310  -19.6240 N   0  0  0  0  0  0  0  0  0  0  0  0
  -45.1670  -36.9110  -19.8590 C   0  0  2  0  0  0  0  0  0  0  0  0
  -45.6910  -36.5800  -21.2470 C   0  0  0  0  0  0  0  0  0  0  0  0
  -46.0780  -37.4640  -22.0150 O   0  0  0  0  0  0  0  0  0  0  0  0
  -43.6920  -36.5280  -19.7280 C   0  0  0  0  0  0  0  0  0  0  0  0
  -42.7810  -37.3510  -20.6230 C   0  0  0  0  0  0  0  0  0  0  0  0
  -41.3250  -37.0040  -20.4060 C   0  0  0  0  0  0  0  0  0  0  0  0
  -41.0740  -35.5840  -20.6290 N   0  0  0  0  0  0  0  0  0  0  0  0
  -39.8870  -35.0780  -20.9420 C   0  0  0  0  0  0  0  0  0  0  0  0
  -38.8390  -35.8800  -21.0800 N   0  0  0  0  0  0  0  0  0  0  0  0
  -39.7500  -33.7720  -21.1290 N   0  0  0  0  0  0  0  0  0  0  0  0
  -45.6990  -35.2890  -21.5660 N   0  0  0  0  0  0  0  0  0  0  0  0
  -46.0840  -34.8550  -22.9020 C   0  0  2  0  0  0  0  0  0  0  0  0
  -44.8890  -34.7170  -23.8350 C   0  0  0  0  0  0  0  0  0  0  0  0
  -45.0180  -34.9770  -25.0370 O   0  0  0  0  0  0  0  0  0  0  0  0
  -46.8410  -33.5260  -22.8280 C   0  0  0  0  0  0  0  0  0  0  0  0
  -43.7300  -34.3240  -23.3140 N   0  0  0  0  0  0  0  0  0  0  0  0
  -42.5510  -34.0980  -24.1210 C   0  0  0  0  0  0  0  0  0  0  0  0
  -41.6260  -35.2950  -24.1670 C   0  0  0  0  0  0  0  0  0  0  0  0
  -42.0320  -36.4410  -23.9580 O   0  0  0  0  0  0  0  0  0  0  0  0
  -55.2230  -42.6530  -19.3530 N   0  0  0  0  0  0  0  0  0  0  0  0
  -55.4620  -42.5490  -17.9170 C   0  0  2  0  0  0  0  0  0  0  0  0
  -54.2170  -42.0690  -17.1860 C   0  0  0  0  0  0  0  0  0  0  0  0
  -54.3020  -41.2320  -16.2790 O   0  0  0  0  0  0  0  0  0  0  0  0
  -55.9030  -43.8960  -17.3530 C   0  0  0  0  0  0  0  0  0  0  0  0
  -57.3940  -44.2000  -17.2670 C   0  0  0  0  0  0  0  0  0  0  0  0
  -57.6070  -45.3670  -16.3210 C   0  0  0  0  0  0  0  0  0  0  0  0
  -58.1650  -42.9860  -16.8000 C   0  0  0  0  0  0  0  0  0  0  0  0
  -53.0530  -42.6010  -17.5620 N   0  0  0  0  0  0  0  0  0  0  0  0
  -51.8020  -42.2190  -16.9160 C   0  0  2  0  0  0  0  0  0  0  0  0
  -51.5400  -40.7270  -17.0920 C   0  0  0  0  0  0  0  0  0  0  0  0
  -51.0510  -40.0520  -16.1770 O   0  0  0  0  0  0  0  0  0  0  0  0
  -50.6500  -43.0770  -17.4700 C   0  0  0  0  0  0  0  0  0  0  0  0
  -49.3210  -42.3640  -17.3160 C   0  0  0  0  0  0  0  0  0  0  0  0
  -50.6250  -44.4350  -16.7820 C   0  0  0  0  0  0  0  0  0  0  0  0
  -51.8860  -40.1840  -18.2590 N   0  0  0  0  0  0  0  0  0  0  0  0
  -51.6380  -38.7800  -18.5580 C   0  0  2  0  0  0  0  0  0  0  0  0
  -52.6640  -37.8340  -17.9450 C   0  0  0  0  0  0  0  0  0  0  0  0
  -52.4570  -36.6180  -17.9950 O   0  0  0  0  0  0  0  0  0  0  0  0
  -51.6040  -38.5670  -20.0750 C   0  0  0  0  0  0  0  0  0  0  0  0
  -50.5710  -39.3640  -20.8740 C   0  0  0  0  0  0  0  0  0  0  0  0
  -50.8390  -39.2420  -22.3660 C   0  0  0  0  0  0  0  0  0  0  0  0
  -49.1640  -38.8940  -20.5400 C   0  0  0  0  0  0  0  0  0  0  0  0
  -53.7570  -38.3440  -17.3700 N   0  0  0  0  0  0  0  0  0  0  0  0
  -54.8330  -37.4790  -16.8990 C   0  0  2  0  0  0  0  0  0  0  0  0
  -55.2520  -37.7440  -15.4560 C   0  0  0  0  0  0  0  0  0  0  0  0
  -56.2430  -37.1620  -14.9990 O   0  0  0  0  0  0  0  0  0  0  0  0
  -56.0550  -37.6040  -17.8190 C   0  0  0  0  0  0  0  0  0  0  0  0
  -54.5360  -38.5940  -14.7240 N   0  0  0  0  0  0  0  0  0  0  0  0
  -54.8730  -38.9160  -13.3420 C   0  0  2  0  0  0  0  0  0  0  0  0
  -53.7100  -38.5160  -12.4470 C   0  0  0  0  0  0  0  0  0  0  0  0
  -52.5900  -39.0050  -12.6270 O   0  0  0  0  0  0  0  0  0  0  0  0
  -55.1940  -40.4030  -13.1830 C   0  0  0  0  0  0  0  0  0  0  0  0
  -53.9770  -37.6390  -11.4840 N   0  0  0  0  0  0  0  0  0  0  0  0
  -52.9220  -37.1160  -10.6340 C   0  0  2  0  0  0  0  0  0  0  0  0
  -52.5260  -38.1340   -9.5680 C   0  0  0  0  0  0  0  0  0  0  0  0
  -53.2560  -39.0840   -9.2710 O   0  0  0  0  0  0  0  0  0  0  0  0
  -53.3560  -35.8110   -9.9640 C   0  0  0  0  0  0  0  0  0  0  0  0
  -53.9690  -34.7190  -10.8440 C   0  0  0  0  0  0  0  0  0  0  0  0
  -55.4850  -34.8670  -10.9150 C   0  0  0  0  0  0  0  0  0  0  0  0
  -53.5850  -33.3390  -10.3370 C   0  0  0  0  0  0  0  0  0  0  0  0
  -51.3440  -37.9120   -8.9910 N   0  0  0  0  0  0  0  0  0  0  0  0
  -50.8010  -38.7420   -7.9220 C   0  0  2  0  0  0  0  0  0  0  0  0
  -49.4960  -38.1390   -7.4180 C   0  0  0  0  0  0  0  0  0  0  0  0
  -48.5870  -37.8730   -8.2120 O   0  0  0  0  0  0  0  0  0  0  0  0
  -50.5670  -40.1770   -8.4010 C   0  0  0  0  0  0  0  0  0  0  0  0
  -49.3940  -37.9190   -6.1030 N   0  0  0  0  0  0  0  0  0  0  0  0
  -48.1600  -37.3940   -5.5270 C   0  0  2  0  0  0  0  0  0  0  0  0
  -46.9650  -38.2890   -5.8230 C   0  0  0  0  0  0  0  0  0  0  0  0
  -45.8240  -37.8140   -5.7980 O   0  0  0  0  0  0  0  0  0  0  0  0
  -48.3120  -37.2150   -4.0150 C   0  0  0  0  0  0  0  0  0  0  0  0
  -46.6910  -40.3510   -8.9090 N   0  0  0  0  0  0  0  0  0  0  0  0
  -47.0570  -40.8150  -10.2470 C   0  0  2  0  0  0  0  0  0  0  0  0
  -46.2470  -42.0470  -10.6460 C   0  0  0  0  0  0  0  0  0  0  0  0
  -46.8070  -42.9500  -11.2830 O   0  0  0  0  0  0  0  0  0  0  0  0
  -46.8940  -39.6940  -11.2860 C   0  0  0  0  0  0  0  0  0  0  0  0
  -44.9320  -42.1470  -10.3100 N   0  0  0  0  0  0  0  0  0  0  0  0
  -44.2090  -43.4020  -10.5780 C   0  0  2  0  0  0  0  0  0  0  0  0
  -44.8960  -44.6460  -10.0290 C   0  0  0  0  0  0  0  0  0  0  0  0
  -44.6480  -45.7540  -10.5150 O   0  0  0  0  0  0  0  0  0  0  0  0
  -42.8460  -43.1740   -9.9010 C   0  0  0  0  0  0  0  0  0  0  0  0
  -42.9800  -41.8880   -9.1210 C   0  0  0  0  0  0  0  0  0  0  0  0
  -43.9940  -41.1010   -9.8690 C   0  0  0  0  0  0  0  0  0  0  0  0
  -48.5210  -44.6490   -9.6170 N   0  0  0  0  0  0  0  0  0  0  0  0
  -49.7540  -44.7110  -10.3950 C   0  0  2  0  0  0  0  0  0  0  0  0
  -49.5490  -45.3840  -11.7460 C   0  0  0  0  0  0  0  0  0  0  0  0
  -50.5030  -45.9330  -12.3050 O   0  0  0  0  0  0  0  0  0  0  0  0
  -50.3160  -43.3020  -10.5950 C   0  0  0  0  0  0  0  0  0  0  0  0
  -51.6580  -43.1820  -11.3200 C   0  0  0  0  0  0  0  0  0  0  0  0
  -52.8060  -43.0430  -10.3290 C   0  0  0  0  0  0  0  0  0  0  0  0
  -51.6360  -42.0200  -12.2990 C   0  0  0  0  0  0  0  0  0  0  0  0
  -48.3270  -45.3630  -12.2770 N   0  0  0  0  0  0  0  0  0  0  0  0
  -48.0790  -45.9740  -13.5780 C   0  0  2  0  0  0  0  0  0  0  0  0
  -47.9620  -47.4860  -13.4470 C   0  0  0  0  0  0  0  0  0  0  0  0
  -48.5190  -48.2330  -14.2580 O   0  0  0  0  0  0  0  0  0  0  0  0
  -46.8320  -45.3500  -14.2330 C   0  0  2  0  0  0  0  0  0  0  0  0
  -47.2180  -44.1140  -15.0470 C   0  0  0  0  0  0  0  0  0  0  0  0
  -46.1210  -46.3570  -15.1230 C   0  0  0  0  0  0  0  0  0  0  0  0
  -47.8090  -42.9760  -14.2330 C   0  0  0  0  0  0  0  0  0  0  0  0
  2  1  1  6
  3  2  1  0
  4  3  2  0
  5  2  1  0
  6  5  1  0
  7  6  1  0
  8  7  2  0
  9  7  1  0
 10  3  1  0
 11 10  1  0
 12 11  1  0
 13 12  2  0
 11 14  1  1
 15 14  1  0
 16 15  2  0
 17 15  1  0
 18 12  1  0
 19 18  1  0
 20 19  1  0
 21 20  2  0
 19 22  1  6
 23 22  1  0
 24 23  1  0
 25 24  1  0
 26 25  1  0
 27 26  1  0
 28 26  2  0
 29 20  1  0
 30 29  1  0
 31 30  1  0
 32 31  2  0
 30 33  1  1
 34 31  1  0
 35 34  1  0
 36 35  1  0
 37 36  2  0
 39 38  1  6
 40 39  1  0
 41 40  2  0
 42 39  1  0
 43 42  1  0
 44 43  1  0
 45 43  1  0
 46 40  1  0
 47 46  1  6
 48 47  1  0
 49 48  2  0
 50 47  1  0
 51 50  1  0
 52 50  1  0
 53 48  1  0
 54 53  1  0
 55 54  1  0
 56 55  2  0
 54 57  1  6
 58 57  1  0
 59 58  1  0
 60 58  1  0
 61 55  1  0
 62 61  1  0
 63 62  1  0
 64 63  2  0
 62 65  1  6
 66 63  1  0
 67 66  1  0
 68 67  1  0
 69 68  2  0
 67 70  1  6
 71 68  1  0
 72 71  1  0
 73 72  1  0
 74 73  2  0
 72 75  1  1
 76 75  1  0
 77 76  1  0
 78 76  1  0
 79 73  1  0
 80 79  1  0
 81 80  1  0
 82 81  2  0
 80 83  1  6
 84 81  1  0
 85 84  1  0
 86 85  1  0
 87 86  2  0
 85 88  1  1
 90 89  1  0
 91 90  1  0
 92 91  2  0
 90 93  1  6
 94 91  1  0
 95 94  1  0
 95 96  1  1
 97 96  2  0
 98 95  1  0
 99 98  1  0
100 94  1  0
100 99  1  0
102101  1  6
103102  1  0
104103  2  0
105102  1  0
106105  1  0
107106  1  0
108106  1  0
109103  1  0
110109  1  1
111110  1  0
112111  2  0
113110  1  0
114113  1  0
113115  1  6
116114  1  0
M  END
$$$$
