
     RDKit          3D

 71 68  0  0  0  0  0  0  0  0999 V2000
   -4.6650   -1.4530   28.2590 N   0  0  0  0  0  0  0  0  0  0  0  0
   -5.2680   -2.0190   27.0300 C   0  0  2  0  0  0  0  0  0  0  0  0
   -5.5630   -3.4930   27.2690 C   0  0  0  0  0  0  0  0  0  0  0  0
   -4.6490   -4.2450   27.5740 O   0  0  0  0  0  0  0  0  0  0  0  0
   -4.3010   -1.8190   25.8320 C   0  0  0  0  0  0  0  0  0  0  0  0
   -4.9330   -2.1430   24.4900 C   0  0  0  0  0  0  0  0  0  0  0  0
   -5.5470   -3.2010   24.3390 O   0  0  0  0  0  0  0  0  0  0  0  0
   -4.7550   -1.2580   23.4870 N   0  0  0  0  0  0  0  0  0  0  0  0
   -6.3530   -6.0250   25.3090 N   0  0  0  0  0  0  0  0  0  0  0  0
   -5.8920   -6.9710   24.2670 C   0  0  2  0  0  0  0  0  0  0  0  0
   -4.3900   -7.2080   24.4580 C   0  0  0  0  0  0  0  0  0  0  0  0
   -3.8640   -8.1780   23.9310 O   0  0  0  0  0  0  0  0  0  0  0  0
   -6.1770   -6.4410   22.8420 C   0  0  2  0  0  0  0  0  0  0  0  0
   -5.3590   -5.3140   22.5940 O   0  0  0  0  0  0  0  0  0  0  0  0
   -7.6040   -5.9650   22.7010 C   0  0  0  0  0  0  0  0  0  0  0  0
   -3.7420   -6.3080   25.2240 N   0  0  0  0  0  0  0  0  0  0  0  0
   -2.3230   -6.4120   25.5750 C   0  0  2  0  0  0  0  0  0  0  0  0
   -2.0840   -7.1700   26.8870 C   0  0  0  0  0  0  0  0  0  0  0  0
   -2.3540   -6.6910   27.9640 O   0  0  0  0  0  0  0  0  0  0  0  0
   -1.7050   -5.0130   25.6030 C   0  0  0  0  0  0  0  0  0  0  0  0
   -0.2240   -5.0180   25.8940 C   0  0  0  0  0  0  0  0  0  0  0  0
    0.3200   -5.9540   26.5460 O   0  0  0  0  0  0  0  0  0  0  0  0
    0.4330   -3.9370   25.4860 N   0  0  0  0  0  0  0  0  0  0  0  0
   -1.4940   -8.3420   26.7760 N   0  0  0  0  0  0  0  0  0  0  0  0
   -1.2790   -9.2090   27.9150 C   0  0  2  0  0  0  0  0  0  0  0  0
   -0.1570   -8.7710   28.8660 C   0  0  0  0  0  0  0  0  0  0  0  0
   -0.0210   -9.3590   29.9450 O   0  0  0  0  0  0  0  0  0  0  0  0
   -1.0340  -10.6250   27.4260 C   0  0  0  0  0  0  0  0  0  0  0  0
    0.3000  -10.7880   26.7160 C   0  0  0  0  0  0  0  0  0  0  0  0
    1.3610  -10.4720   27.2790 O   0  0  0  0  0  0  0  0  0  0  0  0
    0.2600  -11.2960   25.4820 N   0  0  0  0  0  0  0  0  0  0  0  0
   -3.5260  -11.7830   32.3590 N   0  0  0  0  0  0  0  0  0  0  0  0
   -4.1410  -12.7070   31.4050 C   0  0  2  0  0  0  0  0  0  0  0  0
   -3.0540  -13.3350   30.5700 C   0  0  0  0  0  0  0  0  0  0  0  0
   -2.2030  -12.6280   30.0510 O   0  0  0  0  0  0  0  0  0  0  0  0
   -5.0750  -11.9280   30.4970 C   0  0  0  0  0  0  0  0  0  0  0  0
   -5.7870  -12.7530   29.4640 C   0  0  0  0  0  0  0  0  0  0  0  0
   -6.7450  -11.8920   28.6940 C   0  0  0  0  0  0  0  0  0  0  0  0
   -6.0590  -10.8630   27.9170 N   0  0  0  0  0  0  0  0  0  0  0  0
   -5.5720  -11.0120   26.6970 C   0  0  0  0  0  0  0  0  0  0  0  0
   -5.6550  -12.1530   26.0240 N   0  0  0  0  0  0  0  0  0  0  0  0
   -4.9660   -9.9820   26.1420 N   0  0  0  0  0  0  0  0  0  0  0  0
   -3.0770  -14.6540   30.4390 N   0  0  0  0  0  0  0  0  0  0  0  0
   -2.0430  -15.3680   29.6790 C   0  0  2  0  0  0  0  0  0  0  0  0
   -2.0500  -14.9290   28.2090 C   0  0  0  0  0  0  0  0  0  0  0  0
   -3.1180  -14.7550   27.6080 O   0  0  0  0  0  0  0  0  0  0  0  0
   -2.2870  -16.8910   29.6380 C   0  0  0  0  0  0  0  0  0  0  0  0
   -2.1970  -17.5730   30.9770 C   0  0  0  0  0  0  0  0  0  0  0  0
   -1.9670  -16.9500   32.0250 O   0  0  0  0  0  0  0  0  0  0  0  0
   -2.3860  -18.7990   30.9500 O   0  0  0  0  0  0  0  0  0  0  0  0
   -0.8520  -14.8530   27.6390 N   0  0  0  0  0  0  0  0  0  0  0  0
   -0.6570  -14.6480   26.2300 C   0  0  0  0  0  0  0  0  0  0  0  0
   -0.6710  -15.9610   25.5120 C   0  0  0  0  0  0  0  0  0  0  0  0
   -0.6680  -17.0370   26.1240 O   0  0  0  0  0  0  0  0  0  0  0  0
   -0.6250  -15.8660   24.1940 N   0  0  0  0  0  0  0  0  0  0  0  0
   -0.5340  -17.0270   23.3240 C   0  0  0  0  0  0  0  0  0  0  0  0
   -1.8520  -17.7490   23.1310 C   0  0  0  0  0  0  0  0  0  0  0  0
   -1.8660  -18.9200   22.7680 O   0  0  0  0  0  0  0  0  0  0  0  0
   -2.9590  -17.0470   23.3210 N   0  0  0  0  0  0  0  0  0  0  0  0
   -4.2680  -17.6830   23.3950 C   0  0  2  0  0  0  0  0  0  0  0  0
   -5.2960  -17.2090   22.3650 C   0  0  0  0  0  0  0  0  0  0  0  0
   -6.3990  -17.7200   22.3720 O   0  0  0  0  0  0  0  0  0  0  0  0
   -4.8290  -17.5700   24.8290 C   0  0  0  0  0  0  0  0  0  0  0  0
   -4.9520  -16.2990   21.4430 N   0  0  0  0  0  0  0  0  0  0  0  0
   -5.9880  -15.8140   20.4890 C   0  0  2  0  0  0  0  0  0  0  0  0
   -6.4980  -16.8530   19.4980 C   0  0  0  0  0  0  0  0  0  0  0  0
   -7.5930  -16.6610   19.0150 O   0  0  0  0  0  0  0  0  0  0  0  0
   -5.8140  -14.4250   19.7740 C   0  0  0  0  0  0  0  0  0  0  0  0
   -4.4450  -13.8100   19.8710 C   0  0  0  0  0  0  0  0  0  0  0  0
   -3.6040  -14.1740   20.7290 O   0  0  0  0  0  0  0  0  0  0  0  0
   -4.2020  -12.8200   18.9860 N   0  0  0  0  0  0  0  0  0  0  0  0
  2  1  1  1
  3  2  1  0
  4  3  2  0
  5  2  1  0
  6  5  1  0
  7  6  2  0
  8  6  1  0
 10  9  1  1
 11 10  1  0
 12 11  2  0
 13 10  1  0
 14 13  1  0
 13 15  1  1
 16 11  1  0
 17 16  1  0
 18 17  1  0
 19 18  2  0
 17 20  1  1
 21 20  1  0
 22 21  2  0
 23 21  1  0
 24 18  1  0
 25 24  1  0
 26 25  1  0
 27 26  2  0
 25 28  1  6
 29 28  1  0
 30 29  2  0
 31 29  1  0
 33 32  1  1
 34 33  1  0
 35 34  2  0
 36 33  1  0
 37 36  1  0
 38 37  1  0
 39 38  1  0
 40 39  1  0
 41 40  1  0
 42 40  2  0
 43 34  1  0
 44 43  1  0
 45 44  1  0
 46 45  2  0
 44 47  1  6
 48 47  1  0
 49 48  2  0
 50 48  1  0
 51 45  1  0
 52 51  1  0
 53 52  1  0
 54 53  2  0
 55 53  1  0
 56 55  1  0
 57 56  1  0
 58 57  2  0
 59 57  1  0
 60 59  1  0
 61 60  1  0
 62 61  2  0
 60 63  1  1
 64 61  1  0
 65 64  1  0
 66 65  1  0
 67 66  2  0
 65 68  1  6
 69 68  1  0
 70 69  2  0
 71 69  1  0
M  END
$$$$
