
     RDKit          3D

172169  0  0  0  0  0  0  0  0999 V2000
  199.3580  -50.2770  159.1500 N   0  0  0  0  0  0  0  0  0  0  0  0
  200.2710  -51.4040  159.1560 C   0  0  2  0  0  0  0  0  0  0  0  0
  201.5440  -51.0500  159.9010 C   0  0  0  0  0  0  0  0  0  0  0  0
  202.0780  -51.8660  160.6390 O   0  0  0  0  0  0  0  0  0  0  0  0
  200.6130  -51.8680  157.7390 C   0  0  0  0  0  0  0  0  0  0  0  0
  201.4820  -53.0820  157.7260 C   0  0  0  0  0  0  0  0  0  0  0  0
  201.0780  -54.3670  157.6360 C   0  0  0  0  0  0  0  0  0  0  0  0
  202.8990  -53.1120  157.8340 C   0  0  0  0  0  0  0  0  0  0  0  0
  202.1550  -55.2060  157.6620 N   0  0  0  0  0  0  0  0  0  0  0  0
  203.2890  -54.4610  157.7860 C   0  0  0  0  0  0  0  0  0  0  0  0
  203.8830  -52.1260  157.9580 C   0  0  0  0  0  0  0  0  0  0  0  0
  204.6140  -54.8590  157.8530 C   0  0  0  0  0  0  0  0  0  0  0  0
  205.2050  -52.5140  158.0370 C   0  0  0  0  0  0  0  0  0  0  0  0
  205.5620  -53.8760  157.9820 C   0  0  0  0  0  0  0  0  0  0  0  0
  202.8320  -52.8680  163.1960 N   0  0  0  0  0  0  0  0  0  0  0  0
  204.1640  -53.4690  163.1260 C   0  0  2  0  0  0  0  0  0  0  0  0
  205.0730  -52.9880  164.2550 C   0  0  0  0  0  0  0  0  0  0  0  0
  205.7370  -53.7930  164.9070 O   0  0  0  0  0  0  0  0  0  0  0  0
  204.7980  -53.1150  161.7870 C   0  0  0  0  0  0  0  0  0  0  0  0
  206.0470  -53.9070  161.5040 C   0  0  0  0  0  0  0  0  0  0  0  0
  206.0020  -55.1250  161.3880 O   0  0  0  0  0  0  0  0  0  0  0  0
  207.1610  -53.2250  161.3470 N   0  0  0  0  0  0  0  0  0  0  0  0
  202.7540  -55.5700  167.0620 N   0  0  0  0  0  0  0  0  0  0  0  0
  203.2060  -56.8710  166.5590 C   0  0  2  0  0  0  0  0  0  0  0  0
  204.1070  -57.6460  167.5290 C   0  0  0  0  0  0  0  0  0  0  0  0
  203.9970  -58.8580  167.6070 O   0  0  0  0  0  0  0  0  0  0  0  0
  203.9120  -56.7260  165.2110 C   0  0  0  0  0  0  0  0  0  0  0  0
  204.1880  -58.0650  164.5410 C   0  0  0  0  0  0  0  0  0  0  0  0
  205.1370  -57.9490  163.3650 C   0  0  0  0  0  0  0  0  0  0  0  0
  204.6260  -57.0610  162.3300 N   0  0  0  0  0  0  0  0  0  0  0  0
  203.5850  -57.3270  161.5440 C   0  0  0  0  0  0  0  0  0  0  0  0
  202.9000  -58.4660  161.6530 N   0  0  0  0  0  0  0  0  0  0  0  0
  203.2210  -56.4340  160.6330 N   0  0  0  0  0  0  0  0  0  0  0  0
  200.3260  -60.9100  165.3380 N   0  0  0  0  0  0  0  0  0  0  0  0
  199.2520  -61.1580  164.3800 C   0  0  0  0  0  0  0  0  0  0  0  0
  199.6350  -60.8790  162.9370 C   0  0  0  0  0  0  0  0  0  0  0  0
  200.7680  -60.5110  162.6290 O   0  0  0  0  0  0  0  0  0  0  0  0
  198.6580  -61.0320  162.0560 N   0  0  0  0  0  0  0  0  0  0  0  0
  198.8410  -60.8560  160.6280 C   0  0  2  0  0  0  0  0  0  0  0  0
  197.8690  -59.7980  160.1310 C   0  0  0  0  0  0  0  0  0  0  0  0
  196.6500  -59.9350  160.3100 O   0  0  0  0  0  0  0  0  0  0  0  0
  198.5580  -62.1640  159.9000 C   0  0  0  0  0  0  0  0  0  0  0  0
  199.2710  -63.3320  160.4570 C   0  0  0  0  0  0  0  0  0  0  0  0
  198.9980  -63.9760  161.6220 C   0  0  0  0  0  0  0  0  0  0  0  0
  200.3750  -64.0100  159.8730 C   0  0  0  0  0  0  0  0  0  0  0  0
  199.8680  -65.0140  161.8060 N   0  0  0  0  0  0  0  0  0  0  0  0
  200.7250  -65.0610  160.7440 C   0  0  0  0  0  0  0  0  0  0  0  0
  201.1070  -63.8330  158.7030 C   0  0  0  0  0  0  0  0  0  0  0  0
  201.7690  -65.9400  160.4740 C   0  0  0  0  0  0  0  0  0  0  0  0
  202.1520  -64.7170  158.4300 C   0  0  0  0  0  0  0  0  0  0  0  0
  202.4720  -65.7540  159.3150 C   0  0  0  0  0  0  0  0  0  0  0  0
  200.9290  -51.5610  147.4860 N   0  0  0  0  0  0  0  0  0  0  0  0
  201.0010  -52.3520  148.7010 C   0  0  2  0  0  0  0  0  0  0  0  0
  201.7960  -53.6510  148.6090 C   0  0  0  0  0  0  0  0  0  0  0  0
  202.5770  -53.9390  149.5140 O   0  0  0  0  0  0  0  0  0  0  0  0
  199.5890  -52.6450  149.2080 C   0  0  2  0  0  0  0  0  0  0  0  0
  198.8760  -51.3120  149.4890 C   0  0  0  0  0  0  0  0  0  0  0  0
  199.6140  -53.5350  150.4450 C   0  0  0  0  0  0  0  0  0  0  0  0
  197.3960  -51.4520  149.7310 C   0  0  0  0  0  0  0  0  0  0  0  0
  201.5750  -54.4550  147.5790 N   0  0  0  0  0  0  0  0  0  0  0  0
  202.2680  -55.7390  147.4540 C   0  0  2  0  0  0  0  0  0  0  0  0
  203.4420  -55.6500  146.5080 C   0  0  0  0  0  0  0  0  0  0  0  0
  204.2180  -56.6080  146.4140 O   0  0  0  0  0  0  0  0  0  0  0  0
  201.3150  -56.8300  146.9790 C   0  0  0  0  0  0  0  0  0  0  0  0
  200.1830  -57.0940  147.9180 C   0  0  0  0  0  0  0  0  0  0  0  0
  200.3020  -57.9220  149.0100 N   0  0  0  0  0  0  0  0  0  0  0  0
  198.9010  -56.6530  147.9190 C   0  0  0  0  0  0  0  0  0  0  0  0
  199.1500  -57.9620  149.6540 C   0  0  0  0  0  0  0  0  0  0  0  0
  198.2810  -57.2050  149.0110 N   0  0  0  0  0  0  0  0  0  0  0  0
  203.5870  -54.4910  145.8500 N   0  0  0  0  0  0  0  0  0  0  0  0
  204.5430  -54.2920  144.7790 C   0  0  0  0  0  0  0  0  0  0  0  0
  205.6140  -53.2880  145.1350 C   0  0  0  0  0  0  0  0  0  0  0  0
  206.1640  -53.3280  146.2370 O   0  0  0  0  0  0  0  0  0  0  0  0
  205.9050  -52.3720  144.2120 N   0  0  0  0  0  0  0  0  0  0  0  0
  207.0320  -51.4200  144.3600 C   0  0  2  0  0  0  0  0  0  0  0  0
  206.6950  -50.0990  145.0610 C   0  0  0  0  0  0  0  0  0  0  0  0
  207.5150  -49.1770  145.0730 O   0  0  0  0  0  0  0  0  0  0  0  0
  207.6780  -51.1390  142.9880 C   0  0  0  0  0  0  0  0  0  0  0  0
  206.7310  -50.4200  141.9910 C   0  0  0  0  0  0  0  0  0  0  0  0
  205.4900  -50.4010  142.2010 O   0  0  0  0  0  0  0  0  0  0  0  0
  207.2450  -49.8950  140.9710 O   0  0  0  0  0  0  0  0  0  0  0  0
  205.4990  -50.0020  145.6420 N   0  0  0  0  0  0  0  0  0  0  0  0
  205.1120  -48.8270  146.4170 C   0  0  0  0  0  0  0  0  0  0  0  0
  204.5510  -47.7040  145.5910 C   0  0  0  0  0  0  0  0  0  0  0  0
  204.2390  -46.6410  146.1330 O   0  0  0  0  0  0  0  0  0  0  0  0
  204.8410  -49.9070  150.4270 N   0  0  0  0  0  0  0  0  0  0  0  0
  205.1200  -51.3080  150.0880 C   0  0  2  0  0  0  0  0  0  0  0  0
  205.4950  -52.1820  151.2750 C   0  0  0  0  0  0  0  0  0  0  0  0
  206.0860  -51.7280  152.2560 O   0  0  0  0  0  0  0  0  0  0  0  0
  206.1980  -51.3970  149.0170 C   0  0  0  0  0  0  0  0  0  0  0  0
  207.5550  -50.8470  149.4180 C   0  0  0  0  0  0  0  0  0  0  0  0
  208.3100  -50.4260  148.1850 C   0  0  0  0  0  0  0  0  0  0  0  0
  209.7240  -50.3000  148.4600 N   0  0  0  0  0  0  0  0  0  0  0  0
  210.6260  -49.9620  147.5530 C   0  0  0  0  0  0  0  0  0  0  0  0
  210.2690  -49.6840  146.3070 N   0  0  0  0  0  0  0  0  0  0  0  0
  211.9010  -49.8790  147.8980 N   0  0  0  0  0  0  0  0  0  0  0  0
  205.1500  -53.4580  151.1590 N   0  0  0  0  0  0  0  0  0  0  0  0
  205.4370  -54.4220  152.2000 C   0  0  0  0  0  0  0  0  0  0  0  0
  204.5030  -54.3140  153.3710 C   0  0  0  0  0  0  0  0  0  0  0  0
  204.8180  -54.8260  154.4380 O   0  0  0  0  0  0  0  0  0  0  0  0
  203.3430  -53.6930  153.1640 N   0  0  0  0  0  0  0  0  0  0  0  0
  202.3990  -53.4420  154.2460 C   0  0  2  0  0  0  0  0  0  0  0  0
  201.2240  -54.3960  154.2780 C   0  0  0  0  0  0  0  0  0  0  0  0
  200.1220  -54.0130  154.6790 O   0  0  0  0  0  0  0  0  0  0  0  0
  201.8490  -52.0030  154.2010 C   0  0  2  0  0  0  0  0  0  0  0  0
  201.4530  -51.6810  152.8660 O   0  0  0  0  0  0  0  0  0  0  0  0
  202.8820  -51.0330  154.6790 C   0  0  0  0  0  0  0  0  0  0  0  0
  201.4230  -55.6210  153.8220 N   0  0  0  0  0  0  0  0  0  0  0  0
  200.3930  -56.6210  153.9870 C   0  0  2  0  0  0  0  0  0  0  0  0
  201.0340  -57.9480  154.2950 C   0  0  0  0  0  0  0  0  0  0  0  0
  201.9150  -58.4050  153.5870 O   0  0  0  0  0  0  0  0  0  0  0  0
  199.5120  -56.7060  152.7550 C   0  0  0  0  0  0  0  0  0  0  0  0
  200.5680  -58.5860  155.3550 N   0  0  0  0  0  0  0  0  0  0  0  0
  201.1930  -59.8160  155.8260 C   0  0  2  0  0  0  0  0  0  0  0  0
  200.7620  -61.0450  155.0430 C   0  0  0  0  0  0  0  0  0  0  0  0
  201.3660  -62.0990  155.1620 O   0  0  0  0  0  0  0  0  0  0  0  0
  200.9310  -59.9840  157.3140 C   0  0  0  0  0  0  0  0  0  0  0  0
  201.5380  -58.8660  158.1170 C   0  0  0  0  0  0  0  0  0  0  0  0
  202.5030  -58.2540  157.6270 O   0  0  0  0  0  0  0  0  0  0  0  0
  201.0460  -58.5750  159.2230 O   0  0  0  0  0  0  0  0  0  0  0  0
  199.7010  -60.9020  154.2460 N   0  0  0  0  0  0  0  0  0  0  0  0
  199.2560  -61.9190  153.2800 C   0  0  2  0  0  0  0  0  0  0  0  0
  198.4830  -61.2290  152.1610 C   0  0  0  0  0  0  0  0  0  0  0  0
  198.2120  -60.0390  152.2370 O   0  0  0  0  0  0  0  0  0  0  0  0
  198.3930  -63.0070  153.9560 C   0  0  0  0  0  0  0  0  0  0  0  0
  197.2530  -62.4790  154.7870 C   0  0  0  0  0  0  0  0  0  0  0  0
  197.4650  -62.0080  156.0830 C   0  0  0  0  0  0  0  0  0  0  0  0
  195.9680  -62.4970  154.3060 C   0  0  0  0  0  0  0  0  0  0  0  0
  196.4120  -61.5350  156.8630 C   0  0  0  0  0  0  0  0  0  0  0  0
  194.9150  -62.0300  155.0810 C   0  0  0  0  0  0  0  0  0  0  0  0
  195.1330  -61.5480  156.3610 C   0  0  0  0  0  0  0  0  0  0  0  0
  204.8520  -61.7090  143.0100 N   0  0  0  0  0  0  0  0  0  0  0  0
  205.9000  -62.5940  143.5460 C   0  0  2  0  0  0  0  0  0  0  0  0
  205.4470  -63.7980  144.3690 C   0  0  0  0  0  0  0  0  0  0  0  0
  206.0660  -64.1220  145.3830 O   0  0  0  0  0  0  0  0  0  0  0  0
  206.9090  -61.7680  144.3370 C   0  0  0  0  0  0  0  0  0  0  0  0
  207.4810  -60.6480  143.5120 C   0  0  0  0  0  0  0  0  0  0  0  0
  208.2130  -60.8990  142.5640 O   0  0  0  0  0  0  0  0  0  0  0  0
  207.1340  -59.4080  143.8400 N   0  0  0  0  0  0  0  0  0  0  0  0
  201.5330  -65.7140  149.8380 N   0  0  0  0  0  0  0  0  0  0  0  0
  200.5460  -66.5300  150.5320 C   0  0  2  0  0  0  0  0  0  0  0  0
  199.2070  -65.8350  150.3580 C   0  0  0  0  0  0  0  0  0  0  0  0
  199.1350  -64.6350  150.5020 O   0  0  0  0  0  0  0  0  0  0  0  0
  200.8970  -66.6700  152.0140 C   0  0  0  0  0  0  0  0  0  0  0  0
  201.8820  -67.7970  152.2820 C   0  0  0  0  0  0  0  0  0  0  0  0
  202.3170  -67.8970  153.7320 C   0  0  0  0  0  0  0  0  0  0  0  0
  201.3030  -68.5110  154.5840 N   0  0  0  0  0  0  0  0  0  0  0  0
  200.6330  -67.8970  155.5550 C   0  0  0  0  0  0  0  0  0  0  0  0
  200.8250  -66.6110  155.8440 N   0  0  0  0  0  0  0  0  0  0  0  0
  199.7510  -68.5860  156.2580 N   0  0  0  0  0  0  0  0  0  0  0  0
  200.1490  -70.6390  147.0420 N   0  0  0  0  0  0  0  0  0  0  0  0
  199.9630  -70.8100  148.4870 C   0  0  2  0  0  0  0  0  0  0  0  0
  198.6670  -70.1960  149.0350 C   0  0  0  0  0  0  0  0  0  0  0  0
  198.7070  -69.2770  149.8500 O   0  0  0  0  0  0  0  0  0  0  0  0
  201.1680  -70.2440  149.2270 C   0  0  0  0  0  0  0  0  0  0  0  0
  202.4840  -70.8830  148.8040 C   0  0  0  0  0  0  0  0  0  0  0  0
  203.5610  -69.8390  148.5430 C   0  0  0  0  0  0  0  0  0  0  0  0
  204.2410  -69.4580  149.7810 N   0  0  0  0  0  0  0  0  0  0  0  0
  204.8320  -68.2840  150.0040 C   0  0  0  0  0  0  0  0  0  0  0  0
  204.8470  -67.3140  149.0930 N   0  0  0  0  0  0  0  0  0  0  0  0
  205.4190  -68.0690  151.1710 N   0  0  0  0  0  0  0  0  0  0  0  0
  196.1520  -70.4510  151.6050 N   0  0  0  0  0  0  0  0  0  0  0  0
  196.0850  -71.1270  152.8920 C   0  0  2  0  0  0  0  0  0  0  0  0
  194.7140  -71.0470  153.5340 C   0  0  0  0  0  0  0  0  0  0  0  0
  194.4680  -71.7590  154.5070 O   0  0  0  0  0  0  0  0  0  0  0  0
  197.1470  -70.6030  153.8450 C   0  0  0  0  0  0  0  0  0  0  0  0
  196.9320  -69.1840  154.2880 C   0  0  0  0  0  0  0  0  0  0  0  0
  196.1780  -68.8970  155.4240 C   0  0  0  0  0  0  0  0  0  0  0  0
  197.5010  -68.1320  153.5820 C   0  0  0  0  0  0  0  0  0  0  0  0
  195.9860  -67.5840  155.8330 C   0  0  0  0  0  0  0  0  0  0  0  0
  197.3080  -66.8230  153.9860 C   0  0  0  0  0  0  0  0  0  0  0  0
  196.5540  -66.5450  155.1120 C   0  0  0  0  0  0  0  0  0  0  0  0
  2  1  1  6
  3  2  1  0
  4  3  2  0
  5  2  1  0
  6  5  1  0
  7  6  2  0
  8  6  1  0
  9  7  1  0
 10  9  1  0
 10  8  2  0
 11  8  1  0
 12 10  1  0
 13 11  2  0
 14 12  2  0
 14 13  1  0
 16 15  1  1
 17 16  1  0
 18 17  2  0
 19 16  1  0
 20 19  1  0
 21 20  2  0
 22 20  1  0
 24 23  1  1
 25 24  1  0
 26 25  2  0
 27 24  1  0
 28 27  1  0
 29 28  1  0
 30 29  1  0
 31 30  1  0
 32 31  1  0
 33 31  2  0
 35 34  1  0
 36 35  1  0
 37 36  2  0
 38 36  1  0
 39 38  1  0
 40 39  1  0
 41 40  2  0
 39 42  1  6
 43 42  1  0
 44 43  2  0
 45 43  1  0
 46 44  1  0
 47 46  1  0
 47 45  2  0
 48 45  1  0
 49 47  1  0
 50 48  2  0
 51 49  2  0
 51 50  1  0
 53 52  1  6
 54 53  1  0
 55 54  2  0
 56 53  1  0
 57 56  1  0
 56 58  1  1
 59 57  1  0
 60 54  1  0
 61 60  1  0
 62 61  1  0
 63 62  2  0
 61 64  1  6
 65 64  1  0
 66 65  1  0
 67 65  2  0
 68 66  2  0
 69 68  1  0
 69 67  1  0
 70 62  1  0
 71 70  1  0
 72 71  1  0
 73 72  2  0
 74 72  1  0
 75 74  1  0
 76 75  1  0
 77 76  2  0
 75 78  1  6
 79 78  1  0
 80 79  2  0
 81 79  1  0
 82 76  1  0
 83 82  1  0
 84 83  1  0
 85 84  2  0
 87 86  1  1
 88 87  1  0
 89 88  2  0
 90 87  1  0
 91 90  1  0
 92 91  1  0
 93 92  1  0
 94 93  1  0
 95 94  1  0
 96 94  2  0
 97 88  1  0
 98 97  1  0
 99 98  1  0
100 99  2  0
101 99  1  0
102101  1  6
103102  1  0
104103  2  0
105102  1  0
106105  1  0
105107  1  6
108103  1  0
109108  1  0
110109  1  0
111110  2  0
109112  1  6
113110  1  0
114113  1  0
115114  1  0
116115  2  0
114117  1  1
118117  1  0
119118  2  0
120118  1  0
121115  1  0
122121  1  0
123122  1  0
124123  2  0
122125  1  1
126125  1  0
127126  2  0
128126  1  0
129127  1  0
130128  2  0
131130  1  0
131129  2  0
133132  1  1
134133  1  0
135134  2  0
136133  1  0
137136  1  0
138137  2  0
139137  1  0
141140  1  6
142141  1  0
143142  2  0
144141  1  0
145144  1  0
146145  1  0
147146  1  0
148147  1  0
149148  1  0
150148  2  0
152151  1  6
153152  1  0
154153  2  0
155152  1  0
156155  1  0
157156  1  0
158157  1  0
159158  1  0
160159  1  0
161159  2  0
163162  1  6
164163  1  0
165164  2  0
166163  1  0
167166  1  0
168167  2  0
169167  1  0
170168  1  0
171169  2  0
172170  2  0
172171  1  0
M  END
$$$$
