
     RDKit          3D

129125  0  0  0  0  0  0  0  0999 V2000
  117.0350   79.9320   27.4030 N   0  0  0  0  0  0  0  0  0  0  0  0
  118.4210   80.1230   26.9690 C   0  0  2  0  0  0  0  0  0  0  0  0
  118.5000   81.1100   25.8240 C   0  0  0  0  0  0  0  0  0  0  0  0
  119.4220   81.9160   25.7580 O   0  0  0  0  0  0  0  0  0  0  0  0
  119.0670   78.8100   26.5370 C   0  0  0  0  0  0  0  0  0  0  0  0
  119.3610   77.8940   27.7030 C   0  0  0  0  0  0  0  0  0  0  0  0
  119.4770   78.3350   28.8510 O   0  0  0  0  0  0  0  0  0  0  0  0
  119.4800   76.6060   27.4170 N   0  0  0  0  0  0  0  0  0  0  0  0
  117.5180   81.0340   24.9260 N   0  0  0  0  0  0  0  0  0  0  0  0
  117.4800   81.8800   23.7480 C   0  0  2  0  0  0  0  0  0  0  0  0
  117.1440   83.3260   24.1400 C   0  0  0  0  0  0  0  0  0  0  0  0
  117.7360   84.2820   23.6160 O   0  0  0  0  0  0  0  0  0  0  0  0
  116.4820   81.3250   22.7280 C   0  0  0  0  0  0  0  0  0  0  0  0
  117.8250   84.6820   27.0750 N   0  0  0  0  0  0  0  0  0  0  0  0
  119.0330   85.1960   27.7390 C   0  0  2  0  0  0  0  0  0  0  0  0
  120.0500   85.5970   26.6690 C   0  0  0  0  0  0  0  0  0  0  0  0
  120.6950   86.6450   26.7640 O   0  0  0  0  0  0  0  0  0  0  0  0
  119.6070   84.1600   28.7300 C   0  0  0  0  0  0  0  0  0  0  0  0
  121.0080   84.5460   29.1970 C   0  0  0  0  0  0  0  0  0  0  0  0
  118.6770   84.0590   29.9290 C   0  0  0  0  0  0  0  0  0  0  0  0
  120.1280   84.7860   25.6190 N   0  0  0  0  0  0  0  0  0  0  0  0
  120.9730   85.0780   24.4770 C   0  0  0  0  0  0  0  0  0  0  0  0
  120.6440   86.4260   23.8510 C   0  0  0  0  0  0  0  0  0  0  0  0
  121.5540   87.1800   23.4990 O   0  0  0  0  0  0  0  0  0  0  0  0
  119.3520   86.7360   23.7110 N   0  0  0  0  0  0  0  0  0  0  0  0
  118.9650   88.0540   23.2080 C   0  0  2  0  0  0  0  0  0  0  0  0
  119.4630   89.1920   24.1280 C   0  0  0  0  0  0  0  0  0  0  0  0
  120.0350   90.1860   23.6600 O   0  0  0  0  0  0  0  0  0  0  0  0
  117.4340   88.1550   23.0330 C   0  0  2  0  0  0  0  0  0  0  0  0
  116.9720   87.1780   21.9320 C   0  0  0  0  0  0  0  0  0  0  0  0
  117.0130   89.6170   22.7540 C   0  0  0  0  0  0  0  0  0  0  0  0
  115.4710   87.2520   21.5980 C   0  0  0  0  0  0  0  0  0  0  0  0
  121.9180   89.2250   26.3790 N   0  0  0  0  0  0  0  0  0  0  0  0
  123.3680   89.3390   26.4080 C   0  0  2  0  0  0  0  0  0  0  0  0
  123.8820   89.9910   25.1160 C   0  0  0  0  0  0  0  0  0  0  0  0
  124.9920   90.5150   25.0820 O   0  0  0  0  0  0  0  0  0  0  0  0
  124.0220   87.9620   26.6260 C   0  0  0  0  0  0  0  0  0  0  0  0
  123.8300   87.2970   28.0020 C   0  0  0  0  0  0  0  0  0  0  0  0
  124.4610   85.9000   28.0320 C   0  0  0  0  0  0  0  0  0  0  0  0
  124.4130   88.1630   29.1190 C   0  0  0  0  0  0  0  0  0  0  0  0
  123.0790   89.9840   24.0560 N   0  0  0  0  0  0  0  0  0  0  0  0
  123.5270   90.6310   22.8270 C   0  0  2  0  0  0  0  0  0  0  0  0
  123.4580   92.1500   22.9290 C   0  0  0  0  0  0  0  0  0  0  0  0
  124.0860   92.8510   22.1500 O   0  0  0  0  0  0  0  0  0  0  0  0
  122.7270   90.1410   21.6130 C   0  0  0  0  0  0  0  0  0  0  0  0
  123.4180   88.9880   20.8980 C   0  0  0  0  0  0  0  0  0  0  0  0
  124.3360   89.1960   20.1010 O   0  0  0  0  0  0  0  0  0  0  0  0
  122.9970   87.7680   21.1970 N   0  0  0  0  0  0  0  0  0  0  0  0
  122.7310   92.6600   23.9130 N   0  0  0  0  0  0  0  0  0  0  0  0
  122.6230   94.1040   24.0690 C   0  0  2  0  0  0  0  0  0  0  0  0
  123.2610   94.5340   25.3910 C   0  0  0  0  0  0  0  0  0  0  0  0
  123.8480   93.7110   26.0810 O   0  0  0  0  0  0  0  0  0  0  0  0
  121.1560   94.5420   23.9570 C   0  0  0  0  0  0  0  0  0  0  0  0
  120.5760   94.3150   22.5870 C   0  0  0  0  0  0  0  0  0  0  0  0
  120.8270   95.2190   21.5570 C   0  0  0  0  0  0  0  0  0  0  0  0
  119.8100   93.1820   22.3140 C   0  0  0  0  0  0  0  0  0  0  0  0
  120.3020   95.0110   20.2750 C   0  0  0  0  0  0  0  0  0  0  0  0
  119.2830   92.9620   21.0430 C   0  0  0  0  0  0  0  0  0  0  0  0
  119.5260   93.8790   20.0190 C   0  0  0  0  0  0  0  0  0  0  0  0
  121.3460   95.3190   31.5320 N   0  0  0  0  0  0  0  0  0  0  0  0
  121.6130   94.2110   32.4370 C   0  0  2  0  0  0  0  0  0  0  0  0
  120.6160   94.1110   33.6010 C   0  0  0  0  0  0  0  0  0  0  0  0
  120.6550   93.1410   34.3490 O   0  0  0  0  0  0  0  0  0  0  0  0
  123.0530   94.3030   32.9650 C   0  0  0  0  0  0  0  0  0  0  0  0
  124.0920   93.8450   31.9420 C   0  0  0  0  0  0  0  0  0  0  0  0
  123.7750   92.4220   31.4560 C   0  0  0  0  0  0  0  0  0  0  0  0
  124.7150   91.9790   30.4180 N   0  0  0  0  0  0  0  0  0  0  0  0
  124.5300   92.1550   29.1080 C   0  0  0  0  0  0  0  0  0  0  0  0
  123.4540   92.7890   28.6700 N   0  0  0  0  0  0  0  0  0  0  0  0
  125.4380   91.7240   28.2360 N   0  0  0  0  0  0  0  0  0  0  0  0
  118.9030   81.0790   16.6710 N   0  0  0  0  0  0  0  0  0  0  0  0
  119.4200   80.4670   17.8840 C   0  0  2  0  0  0  0  0  0  0  0  0
  119.9700   79.0720   17.5870 C   0  0  0  0  0  0  0  0  0  0  0  0
  119.3090   78.2570   16.9500 O   0  0  0  0  0  0  0  0  0  0  0  0
  118.3470   80.4200   18.9580 C   0  0  0  0  0  0  0  0  0  0  0  0
  118.7870   79.7020   20.2110 C   0  0  0  0  0  0  0  0  0  0  0  0
  119.7560   80.2420   21.0280 C   0  0  0  0  0  0  0  0  0  0  0  0
  118.2240   78.4810   20.5730 C   0  0  0  0  0  0  0  0  0  0  0  0
  120.1650   79.5940   22.1670 C   0  0  0  0  0  0  0  0  0  0  0  0
  118.6280   77.8260   21.7130 C   0  0  0  0  0  0  0  0  0  0  0  0
  119.6000   78.3880   22.5050 C   0  0  0  0  0  0  0  0  0  0  0  0
  120.0200   77.7440   23.6430 O   0  0  0  0  0  0  0  0  0  0  0  0
  129.0240   78.0320   19.8800 N   0  0  0  0  0  0  0  0  0  0  0  0
  129.5030   78.6880   21.0990 C   0  0  2  0  0  0  0  0  0  0  0  0
  129.1040   80.1640   21.1770 C   0  0  0  0  0  0  0  0  0  0  0  0
  129.0300   80.7210   22.2840 O   0  0  0  0  0  0  0  0  0  0  0  0
  131.0240   78.5360   21.2350 C   0  0  0  0  0  0  0  0  0  0  0  0
  131.3390   77.3780   22.0000 O   0  0  0  0  0  0  0  0  0  0  0  0
  128.8840   80.8070   20.0260 N   0  0  0  0  0  0  0  0  0  0  0  0
  128.0020   81.9740   20.0210 C   0  0  2  0  0  0  0  0  0  0  0  0
  126.6160   81.3980   19.7960 C   0  0  0  0  0  0  0  0  0  0  0  0
  126.2100   81.1730   18.6550 O   0  0  0  0  0  0  0  0  0  0  0  0
  128.3230   83.0400   18.9340 C   0  0  2  0  0  0  0  0  0  0  0  0
  129.7480   83.5600   19.0380 C   0  0  0  0  0  0  0  0  0  0  0  0
  127.3790   84.2310   19.0360 C   0  0  0  0  0  0  0  0  0  0  0  0
  129.9950   84.7590   18.1500 C   0  0  0  0  0  0  0  0  0  0  0  0
  125.9180   81.1060   20.8880 N   0  0  0  0  0  0  0  0  0  0  0  0
  124.5990   80.4850   20.8070 C   0  0  2  0  0  0  0  0  0  0  0  0
  123.6570   81.3230   19.9550 C   0  0  0  0  0  0  0  0  0  0  0  0
  122.7780   80.7900   19.2740 O   0  0  0  0  0  0  0  0  0  0  0  0
  123.9920   80.2910   22.2020 C   0  0  0  0  0  0  0  0  0  0  0  0
  124.7370   79.3240   23.0660 C   0  0  0  0  0  0  0  0  0  0  0  0
  125.4980   78.2930   22.5530 N   0  0  0  0  0  0  0  0  0  0  0  0
  124.8420   79.2300   24.4140 C   0  0  0  0  0  0  0  0  0  0  0  0
  126.0370   77.6110   23.5450 C   0  0  0  0  0  0  0  0  0  0  0  0
  125.6560   78.1580   24.6860 N   0  0  0  0  0  0  0  0  0  0  0  0
  123.8470   82.6370   19.9960 N   0  0  0  0  0  0  0  0  0  0  0  0
  122.9300   83.5360   19.3210 C   0  0  2  0  0  0  0  0  0  0  0  0
  123.6080   84.7670   18.7370 C   0  0  0  0  0  0  0  0  0  0  0  0
  124.2930   85.5270   19.4370 O   0  0  0  0  0  0  0  0  0  0  0  0
  121.8280   83.9710   20.2760 C   0  0  0  0  0  0  0  0  0  0  0  0
  120.9000   85.0430   19.7210 C   0  0  0  0  0  0  0  0  0  0  0  0
  120.3250   84.6160   18.3670 C   0  0  0  0  0  0  0  0  0  0  0  0
  119.7920   85.3080   20.7110 C   0  0  0  0  0  0  0  0  0  0  0  0
  123.3940   84.9590   17.4410 N   0  0  0  0  0  0  0  0  0  0  0  0
  123.8580   86.1570   16.7780 C   0  0  2  0  0  0  0  0  0  0  0  0
  122.6770   86.8390   16.0930 C   0  0  0  0  0  0  0  0  0  0  0  0
  121.7860   86.1880   15.5540 O   0  0  0  0  0  0  0  0  0  0  0  0
  124.9770   85.8350   15.7810 C   0  0  0  0  0  0  0  0  0  0  0  0
  125.8560   86.9410   15.6470 O   0  0  0  0  0  0  0  0  0  0  0  0
  121.9850   93.4150   14.1740 N   0  0  0  0  0  0  0  0  0  0  0  0
  121.6360   94.6260   14.8990 C   0  0  2  0  0  0  0  0  0  0  0  0
  121.1720   95.7340   13.9560 C   0  0  0  0  0  0  0  0  0  0  0  0
  120.3450   96.5610   14.3220 O   0  0  0  0  0  0  0  0  0  0  0  0
  122.8240   95.1070   15.7350 C   0  0  0  0  0  0  0  0  0  0  0  0
  123.1870   94.1930   16.8940 C   0  0  0  0  0  0  0  0  0  0  0  0
  123.7170   95.0120   18.0600 C   0  0  0  0  0  0  0  0  0  0  0  0
  123.9790   94.1540   19.2930 C   0  0  0  0  0  0  0  0  0  0  0  0
  125.0180   93.1150   19.0510 N   0  0  0  0  0  0  0  0  0  0  0  0
  2  1  1  6
  3  2  1  0
  4  3  2  0
  5  2  1  0
  6  5  1  0
  7  6  2  0
  8  6  1  0
  9  3  1  0
 10  9  1  0
 11 10  1  0
 12 11  2  0
 10 13  1  6
 15 14  1  6
 16 15  1  0
 17 16  2  0
 18 15  1  0
 19 18  1  0
 20 18  1  0
 21 16  1  0
 22 21  1  0
 23 22  1  0
 24 23  2  0
 25 23  1  0
 26 25  1  1
 27 26  1  0
 28 27  2  0
 29 26  1  0
 30 29  1  0
 29 31  1  6
 32 30  1  0
 34 33  1  6
 35 34  1  0
 36 35  2  0
 37 34  1  0
 38 37  1  0
 39 38  1  0
 40 38  1  0
 41 35  1  0
 42 41  1  0
 43 42  1  0
 44 43  2  0
 42 45  1  6
 46 45  1  0
 47 46  2  0
 48 46  1  0
 49 43  1  0
 50 49  1  0
 51 50  1  0
 52 51  2  0
 50 53  1  1
 54 53  1  0
 55 54  2  0
 56 54  1  0
 57 55  1  0
 58 56  2  0
 59 58  1  0
 59 57  2  0
 61 60  1  1
 62 61  1  0
 63 62  2  0
 64 61  1  0
 65 64  1  0
 66 65  1  0
 67 66  1  0
 68 67  1  0
 69 68  1  0
 70 68  2  0
 72 71  1  6
 73 72  1  0
 74 73  2  0
 75 72  1  0
 76 75  1  0
 77 76  2  0
 78 76  1  0
 79 77  1  0
 80 78  2  0
 81 80  1  0
 81 79  2  0
 82 81  1  0
 84 83  1  6
 85 84  1  0
 86 85  2  0
 87 84  1  0
 88 87  1  0
 89 85  1  0
 90 89  1  6
 91 90  1  0
 92 91  2  0
 93 90  1  0
 94 93  1  0
 93 95  1  1
 96 94  1  0
 97 91  1  0
 98 97  1  0
 99 98  1  0
100 99  2  0
 98101  1  1
102101  1  0
103102  1  0
104102  2  0
105103  2  0
106104  1  0
106105  1  0
107 99  1  0
108107  1  0
109108  1  0
110109  2  0
108111  1  1
112111  1  0
113112  1  0
114112  1  0
115109  1  0
116115  1  0
117116  1  0
118117  2  0
116119  1  6
120119  1  0
122121  1  6
123122  1  0
124123  2  0
125122  1  0
126125  1  0
127126  1  0
128127  1  0
129128  1  0
M  END
$$$$
