
     RDKit          3D

131127  0  0  0  0  0  0  0  0999 V2000
  116.8860   79.7800   27.6130 N   0  0  0  0  0  0  0  0  0  0  0  0
  118.2480   79.9370   27.1080 C   0  0  2  0  0  0  0  0  0  0  0  0
  118.3180   80.9230   25.9490 C   0  0  0  0  0  0  0  0  0  0  0  0
  119.2020   81.7770   25.9220 O   0  0  0  0  0  0  0  0  0  0  0  0
  118.8330   78.5960   26.6570 C   0  0  0  0  0  0  0  0  0  0  0  0
  119.1580   77.6820   27.8100 C   0  0  0  0  0  0  0  0  0  0  0  0
  119.4030   78.1360   28.9310 O   0  0  0  0  0  0  0  0  0  0  0  0
  119.1550   76.3770   27.5520 N   0  0  0  0  0  0  0  0  0  0  0  0
  117.3790   80.8210   25.0040 N   0  0  0  0  0  0  0  0  0  0  0  0
  117.4080   81.7200   23.8380 C   0  0  2  0  0  0  0  0  0  0  0  0
  117.0310   83.1480   24.2370 C   0  0  0  0  0  0  0  0  0  0  0  0
  117.5800   84.1240   23.7140 O   0  0  0  0  0  0  0  0  0  0  0  0
  116.4860   81.2020   22.7180 C   0  0  0  0  0  0  0  0  0  0  0  0
  117.6250   84.4990   27.1890 N   0  0  0  0  0  0  0  0  0  0  0  0
  118.8070   84.9790   27.8930 C   0  0  2  0  0  0  0  0  0  0  0  0
  119.8640   85.4110   26.8610 C   0  0  0  0  0  0  0  0  0  0  0  0
  120.5110   86.4340   27.0280 O   0  0  0  0  0  0  0  0  0  0  0  0
  119.3700   83.9010   28.8530 C   0  0  0  0  0  0  0  0  0  0  0  0
  120.7820   84.2700   29.3370 C   0  0  0  0  0  0  0  0  0  0  0  0
  118.4320   83.6990   30.0440 C   0  0  0  0  0  0  0  0  0  0  0  0
  119.9820   84.6570   25.7730 N   0  0  0  0  0  0  0  0  0  0  0  0
  120.8790   85.0040   24.6770 C   0  0  0  0  0  0  0  0  0  0  0  0
  120.5550   86.3240   23.9830 C   0  0  0  0  0  0  0  0  0  0  0  0
  121.4600   87.0710   23.5910 O   0  0  0  0  0  0  0  0  0  0  0  0
  119.2670   86.6110   23.8070 N   0  0  0  0  0  0  0  0  0  0  0  0
  118.8470   87.9010   23.2590 C   0  0  2  0  0  0  0  0  0  0  0  0
  119.2780   89.0450   24.1900 C   0  0  0  0  0  0  0  0  0  0  0  0
  119.8240   90.0670   23.7410 O   0  0  0  0  0  0  0  0  0  0  0  0
  117.3110   87.9580   23.0450 C   0  0  2  0  0  0  0  0  0  0  0  0
  116.8720   86.9050   22.0210 C   0  0  0  0  0  0  0  0  0  0  0  0
  116.8650   89.3580   22.6310 C   0  0  0  0  0  0  0  0  0  0  0  0
  115.3900   86.9490   21.7010 C   0  0  0  0  0  0  0  0  0  0  0  0
  121.7270   89.0640   26.4630 N   0  0  0  0  0  0  0  0  0  0  0  0
  123.1790   89.2240   26.5490 C   0  0  2  0  0  0  0  0  0  0  0  0
  123.7500   89.9060   25.2960 C   0  0  0  0  0  0  0  0  0  0  0  0
  124.7420   90.6490   25.3710 O   0  0  0  0  0  0  0  0  0  0  0  0
  123.8410   87.8710   26.7860 C   0  0  0  0  0  0  0  0  0  0  0  0
  123.5900   87.2510   28.1650 C   0  0  0  0  0  0  0  0  0  0  0  0
  124.2530   85.8830   28.2590 C   0  0  0  0  0  0  0  0  0  0  0  0
  124.1130   88.1750   29.2630 C   0  0  0  0  0  0  0  0  0  0  0  0
  123.0940   89.7010   24.1580 N   0  0  0  0  0  0  0  0  0  0  0  0
  123.4820   90.3760   22.9280 C   0  0  2  0  0  0  0  0  0  0  0  0
  123.3040   91.8840   22.9770 C   0  0  0  0  0  0  0  0  0  0  0  0
  123.8350   92.6000   22.1310 O   0  0  0  0  0  0  0  0  0  0  0  0
  122.7100   89.8070   21.7360 C   0  0  0  0  0  0  0  0  0  0  0  0
  123.4690   88.6950   21.0410 C   0  0  0  0  0  0  0  0  0  0  0  0
  124.4290   88.9480   20.3020 O   0  0  0  0  0  0  0  0  0  0  0  0
  123.0690   87.4590   21.2920 N   0  0  0  0  0  0  0  0  0  0  0  0
  122.5770   92.3870   23.9630 N   0  0  0  0  0  0  0  0  0  0  0  0
  122.4320   93.8370   24.0920 C   0  0  2  0  0  0  0  0  0  0  0  0
  123.0700   94.3220   25.3990 C   0  0  0  0  0  0  0  0  0  0  0  0
  123.7640   93.5480   26.0470 O   0  0  0  0  0  0  0  0  0  0  0  0
  120.9720   94.2130   23.9910 C   0  0  0  0  0  0  0  0  0  0  0  0
  120.4060   94.0010   22.6170 C   0  0  0  0  0  0  0  0  0  0  0  0
  120.5740   94.9630   21.6290 C   0  0  0  0  0  0  0  0  0  0  0  0
  119.7310   92.8280   22.2990 C   0  0  0  0  0  0  0  0  0  0  0  0
  120.0550   94.7710   20.3510 C   0  0  0  0  0  0  0  0  0  0  0  0
  119.2130   92.6310   21.0250 C   0  0  0  0  0  0  0  0  0  0  0  0
  119.3780   93.6060   20.0490 C   0  0  0  0  0  0  0  0  0  0  0  0
  122.8360   95.5730   25.7920 N   0  0  0  0  0  0  0  0  0  0  0  0
  123.5460   96.1300   26.9500 C   0  0  2  0  0  0  0  0  0  0  0  0
  122.7380   96.3580   28.2370 C   0  0  0  0  0  0  0  0  0  0  0  0
  123.3160   96.7610   29.2370 O   0  0  0  0  0  0  0  0  0  0  0  0
  124.2020   97.4550   26.5640 C   0  0  0  0  0  0  0  0  0  0  0  0
  125.2480   97.2900   25.4740 C   0  0  0  0  0  0  0  0  0  0  0  0
  126.0200   96.3250   25.4700 O   0  0  0  0  0  0  0  0  0  0  0  0
  125.2700   98.2260   24.5350 N   0  0  0  0  0  0  0  0  0  0  0  0
  120.9330   95.3040   31.6190 N   0  0  0  0  0  0  0  0  0  0  0  0
  121.1590   94.1910   32.5270 C   0  0  2  0  0  0  0  0  0  0  0  0
  120.1520   94.1120   33.6790 C   0  0  0  0  0  0  0  0  0  0  0  0
  120.1260   93.1210   34.3970 O   0  0  0  0  0  0  0  0  0  0  0  0
  122.5930   94.2520   33.0720 C   0  0  0  0  0  0  0  0  0  0  0  0
  123.6530   93.9510   32.0000 C   0  0  0  0  0  0  0  0  0  0  0  0
  123.5820   92.4790   31.6020 C   0  0  0  0  0  0  0  0  0  0  0  0
  124.4810   92.1080   30.5040 N   0  0  0  0  0  0  0  0  0  0  0  0
  124.1530   92.1680   29.2150 C   0  0  0  0  0  0  0  0  0  0  0  0
  122.9600   92.6140   28.8580 N   0  0  0  0  0  0  0  0  0  0  0  0
  125.0090   91.7830   28.2900 N   0  0  0  0  0  0  0  0  0  0  0  0
  118.6860   80.5520   16.8140 N   0  0  0  0  0  0  0  0  0  0  0  0
  119.1940   79.8640   17.9760 C   0  0  2  0  0  0  0  0  0  0  0  0
  119.3160   78.3820   17.6590 C   0  0  0  0  0  0  0  0  0  0  0  0
  118.3430   77.7410   17.2320 O   0  0  0  0  0  0  0  0  0  0  0  0
  118.2810   80.1080   19.1740 C   0  0  0  0  0  0  0  0  0  0  0  0
  118.7150   79.4060   20.4280 C   0  0  0  0  0  0  0  0  0  0  0  0
  119.7620   79.8870   21.1950 C   0  0  0  0  0  0  0  0  0  0  0  0
  118.0750   78.2560   20.8430 C   0  0  0  0  0  0  0  0  0  0  0  0
  120.1560   79.2300   22.3480 C   0  0  0  0  0  0  0  0  0  0  0  0
  118.4530   77.6050   21.9760 C   0  0  0  0  0  0  0  0  0  0  0  0
  119.4890   78.0870   22.7230 C   0  0  0  0  0  0  0  0  0  0  0  0
  119.8390   77.4000   23.8490 O   0  0  0  0  0  0  0  0  0  0  0  0
  129.0700   77.9620   19.5460 N   0  0  0  0  0  0  0  0  0  0  0  0
  129.7350   78.7420   20.5930 C   0  0  2  0  0  0  0  0  0  0  0  0
  128.9300   79.9990   20.9270 C   0  0  0  0  0  0  0  0  0  0  0  0
  128.4240   80.1400   22.0420 O   0  0  0  0  0  0  0  0  0  0  0  0
  131.1630   79.1160   20.1730 C   0  0  0  0  0  0  0  0  0  0  0  0
  131.1740   79.9670   19.0390 O   0  0  0  0  0  0  0  0  0  0  0  0
  128.8200   80.9120   19.9630 N   0  0  0  0  0  0  0  0  0  0  0  0
  127.8540   82.0060   20.0570 C   0  0  2  0  0  0  0  0  0  0  0  0
  126.4670   81.4090   19.8700 C   0  0  0  0  0  0  0  0  0  0  0  0
  125.8840   81.5120   18.7870 O   0  0  0  0  0  0  0  0  0  0  0  0
  128.0880   83.1110   18.9970 C   0  0  2  0  0  0  0  0  0  0  0  0
  129.5720   83.4690   18.8920 C   0  0  0  0  0  0  0  0  0  0  0  0
  127.2480   84.3430   19.3100 C   0  0  0  0  0  0  0  0  0  0  0  0
  130.2880   82.7930   17.7330 C   0  0  0  0  0  0  0  0  0  0  0  0
  125.9650   80.7720   20.9280 N   0  0  0  0  0  0  0  0  0  0  0  0
  124.7140   80.0190   20.8940 C   0  0  2  0  0  0  0  0  0  0  0  0
  123.6300   80.7600   20.1250 C   0  0  0  0  0  0  0  0  0  0  0  0
  122.9550   80.1860   19.2630 O   0  0  0  0  0  0  0  0  0  0  0  0
  124.2340   79.7210   22.3190 C   0  0  0  0  0  0  0  0  0  0  0  0
  124.3310   78.2760   22.7020 C   0  0  0  0  0  0  0  0  0  0  0  0
  124.5140   77.2690   21.7770 N   0  0  0  0  0  0  0  0  0  0  0  0
  124.2670   77.6690   23.9100 C   0  0  0  0  0  0  0  0  0  0  0  0
  124.5580   76.1050   22.3990 C   0  0  0  0  0  0  0  0  0  0  0  0
  124.4110   76.3190   23.6940 N   0  0  0  0  0  0  0  0  0  0  0  0
  123.4880   82.0470   20.4200 N   0  0  0  0  0  0  0  0  0  0  0  0
  122.5500   82.8690   19.6820 C   0  0  2  0  0  0  0  0  0  0  0  0
  123.2460   83.9860   18.8940 C   0  0  0  0  0  0  0  0  0  0  0  0
  123.9560   84.8200   19.4690 O   0  0  0  0  0  0  0  0  0  0  0  0
  121.5200   83.4540   20.6370 C   0  0  0  0  0  0  0  0  0  0  0  0
  120.3120   84.0720   19.9560 C   0  0  0  0  0  0  0  0  0  0  0  0
  119.0440   83.5700   20.6190 C   0  0  0  0  0  0  0  0  0  0  0  0
  120.4180   85.5320   20.1240 C   0  0  0  0  0  0  0  0  0  0  0  0
  121.7150   92.7830   14.1920 N   0  0  0  0  0  0  0  0  0  0  0  0
  121.1950   93.9440   14.9190 C   0  0  2  0  0  0  0  0  0  0  0  0
  120.7480   95.0970   14.0240 C   0  0  0  0  0  0  0  0  0  0  0  0
  119.8600   95.8580   14.3910 O   0  0  0  0  0  0  0  0  0  0  0  0
  122.2360   94.4570   15.9150 C   0  0  0  0  0  0  0  0  0  0  0  0
  122.5060   93.4900   17.0440 C   0  0  0  0  0  0  0  0  0  0  0  0
  123.3800   94.1180   18.1160 C   0  0  0  0  0  0  0  0  0  0  0  0
  123.8850   93.0600   19.0730 C   0  0  0  0  0  0  0  0  0  0  0  0
  125.1540   93.4630   19.7440 N   0  0  0  0  0  0  0  0  0  0  0  0
  2  1  1  6
  3  2  1  0
  4  3  2  0
  5  2  1  0
  6  5  1  0
  7  6  2  0
  8  6  1  0
  9  3  1  0
 10  9  1  0
 11 10  1  0
 12 11  2  0
 10 13  1  6
 15 14  1  6
 16 15  1  0
 17 16  2  0
 18 15  1  0
 19 18  1  0
 20 18  1  0
 21 16  1  0
 22 21  1  0
 23 22  1  0
 24 23  2  0
 25 23  1  0
 26 25  1  1
 27 26  1  0
 28 27  2  0
 29 26  1  0
 30 29  1  0
 29 31  1  6
 32 30  1  0
 34 33  1  6
 35 34  1  0
 36 35  2  0
 37 34  1  0
 38 37  1  0
 39 38  1  0
 40 38  1  0
 41 35  1  0
 42 41  1  0
 43 42  1  0
 44 43  2  0
 42 45  1  6
 46 45  1  0
 47 46  2  0
 48 46  1  0
 49 43  1  0
 50 49  1  0
 51 50  1  0
 52 51  2  0
 50 53  1  1
 54 53  1  0
 55 54  2  0
 56 54  1  0
 57 55  1  0
 58 56  2  0
 59 58  1  0
 59 57  2  0
 60 51  1  0
 61 60  1  0
 62 61  1  0
 63 62  2  0
 61 64  1  6
 65 64  1  0
 66 65  2  0
 67 65  1  0
 69 68  1  1
 70 69  1  0
 71 70  2  0
 72 69  1  0
 73 72  1  0
 74 73  1  0
 75 74  1  0
 76 75  1  0
 77 76  1  0
 78 76  2  0
 80 79  1  6
 81 80  1  0
 82 81  2  0
 83 80  1  0
 84 83  1  0
 85 84  2  0
 86 84  1  0
 87 85  1  0
 88 86  2  0
 89 88  1  0
 89 87  2  0
 90 89  1  0
 92 91  1  6
 93 92  1  0
 94 93  2  0
 95 92  1  0
 96 95  1  0
 97 93  1  0
 98 97  1  6
 99 98  1  0
100 99  2  0
101 98  1  0
102101  1  0
101103  1  1
104102  1  0
105 99  1  0
106105  1  0
107106  1  0
108107  2  0
106109  1  1
110109  1  0
111110  1  0
112110  2  0
113111  2  0
114113  1  0
114112  1  0
115107  1  0
116115  1  0
117116  1  0
118117  2  0
116119  1  1
120119  1  0
121120  1  0
122120  1  0
124123  1  6
125124  1  0
126125  2  0
127124  1  0
128127  1  0
129128  1  0
130129  1  0
131130  1  0
M  END
$$$$
