
     RDKit          3D

162161  0  0  0  0  0  0  0  0999 V2000
    2.2220   -7.3370    9.8430 N   0  0  0  0  0  0  0  0  0  0  0  0
    2.5160   -6.3560    8.8170 C   0  0  2  0  0  0  0  0  0  0  0  0
    1.3820   -6.1870    7.8360 C   0  0  0  0  0  0  0  0  0  0  0  0
    1.0640   -7.1080    7.1010 O   0  0  0  0  0  0  0  0  0  0  0  0
    3.7740   -6.7560    8.0600 C   0  0  0  0  0  0  0  0  0  0  0  0
    5.0060   -6.1460    8.6370 C   0  0  0  0  0  0  0  0  0  0  0  0
    5.0180   -4.8210    9.0220 C   0  0  0  0  0  0  0  0  0  0  0  0
    6.1520   -6.8920    8.8200 C   0  0  0  0  0  0  0  0  0  0  0  0
    6.1400   -4.2510    9.5560 C   0  0  0  0  0  0  0  0  0  0  0  0
    7.2780   -6.3300    9.3580 C   0  0  0  0  0  0  0  0  0  0  0  0
    7.2690   -5.0070    9.7270 C   0  0  0  0  0  0  0  0  0  0  0  0
    8.3850   -4.4210   10.2670 O   0  0  0  0  0  0  0  0  0  0  0  0
    0.7810   -5.0080    7.8100 N   0  0  0  0  0  0  0  0  0  0  0  0
   -0.1540   -4.6930    6.7500 C   0  0  2  0  0  0  0  0  0  0  0  0
    0.5230   -3.7610    5.7790 C   0  0  0  0  0  0  0  0  0  0  0  0
    1.0420   -2.7210    6.1690 O   0  0  0  0  0  0  0  0  0  0  0  0
   -1.4280   -4.0670    7.2950 C   0  0  0  0  0  0  0  0  0  0  0  0
   -2.3930   -5.0690    7.8070 C   0  0  0  0  0  0  0  0  0  0  0  0
   -2.6260   -5.3840    9.1050 C   0  0  0  0  0  0  0  0  0  0  0  0
   -3.2590   -5.8940    7.0310 C   0  0  0  0  0  0  0  0  0  0  0  0
   -3.5860   -6.3530    9.1900 N   0  0  0  0  0  0  0  0  0  0  0  0
   -3.9910   -6.6840    7.9260 C   0  0  0  0  0  0  0  0  0  0  0  0
   -3.4880   -6.0390    5.6620 C   0  0  0  0  0  0  0  0  0  0  0  0
   -4.9330   -7.6050    7.5030 C   0  0  0  0  0  0  0  0  0  0  0  0
   -4.4230   -6.9530    5.2430 C   0  0  0  0  0  0  0  0  0  0  0  0
   -5.1340   -7.7250    6.1590 C   0  0  0  0  0  0  0  0  0  0  0  0
    0.5230   -4.1490    4.5100 N   0  0  0  0  0  0  0  0  0  0  0  0
    1.1660   -3.3630    3.4710 C   0  0  2  0  0  0  0  0  0  0  0  0
    0.3170   -3.2310    2.2230 C   0  0  0  0  0  0  0  0  0  0  0  0
   -0.3850   -4.1600    1.8330 O   0  0  0  0  0  0  0  0  0  0  0  0
    2.4960   -3.9870    3.0770 C   0  0  0  0  0  0  0  0  0  0  0  0
    3.5970   -3.8490    4.0820 C   0  0  0  0  0  0  0  0  0  0  0  0
    4.8390   -4.5630    3.6210 C   0  0  0  0  0  0  0  0  0  0  0  0
    4.7050   -5.6730    3.0680 O   0  0  0  0  0  0  0  0  0  0  0  0
    5.9440   -4.0180    3.7950 O   0  0  0  0  0  0  0  0  0  0  0  0
    0.3800   -2.0590    1.6060 N   0  0  0  0  0  0  0  0  0  0  0  0
    0.0070   -1.9250    0.2130 C   0  0  2  0  0  0  0  0  0  0  0  0
    1.3130   -1.7400   -0.5550 C   0  0  0  0  0  0  0  0  0  0  0  0
    2.3780   -1.6900    0.0560 O   0  0  0  0  0  0  0  0  0  0  0  0
   -0.9590   -0.7620    0.0010 C   0  0  0  0  0  0  0  0  0  0  0  0
   -1.6050   -0.7530   -1.3680 C   0  0  0  0  0  0  0  0  0  0  0  0
   -3.0170    0.3340   -1.4670 S   0  0  0  0  0  0  0  0  0  0  0  0
   -2.9640    0.7460   -3.2050 C   0  0  0  0  0  0  0  0  0  0  0  0
    1.2450   -1.6340   -1.8770 N   0  0  0  0  0  0  0  0  0  0  0  0
    2.4500   -1.5580   -2.6880 C   0  0  2  0  0  0  0  0  0  0  0  0
    3.2350   -0.2840   -2.3980 C   0  0  0  0  0  0  0  0  0  0  0  0
    2.7010    0.8210   -2.4750 O   0  0  0  0  0  0  0  0  0  0  0  0
    2.0970   -1.6360   -4.1700 C   0  0  0  0  0  0  0  0  0  0  0  0
    3.2410   -2.0680   -5.0640 C   0  0  0  0  0  0  0  0  0  0  0  0
    2.9770   -1.7500   -6.5170 C   0  0  0  0  0  0  0  0  0  0  0  0
    3.0610   -0.5610   -6.8840 O   0  0  0  0  0  0  0  0  0  0  0  0
    2.6770   -2.6810   -7.2910 O   0  0  0  0  0  0  0  0  0  0  0  0
    4.5060   -0.4680   -2.0500 N   0  0  0  0  0  0  0  0  0  0  0  0
    5.4340    0.6180   -1.7540 C   0  0  2  0  0  0  0  0  0  0  0  0
    4.9590    1.5080   -0.6130 C   0  0  0  0  0  0  0  0  0  0  0  0
    5.3790    2.6540   -0.5070 O   0  0  0  0  0  0  0  0  0  0  0  0
    5.6720    1.4640   -3.0020 C   0  0  0  0  0  0  0  0  0  0  0  0
    6.2490    0.6590   -4.1490 C   0  0  0  0  0  0  0  0  0  0  0  0
    7.2000   -0.1150   -3.9100 O   0  0  0  0  0  0  0  0  0  0  0  0
    5.7580    0.8060   -5.2910 O   0  0  0  0  0  0  0  0  0  0  0  0
    4.0870    0.9760    0.2380 N   0  0  0  0  0  0  0  0  0  0  0  0
    3.5600    1.7170    1.3840 C   0  0  2  0  0  0  0  0  0  0  0  0
    3.4430    0.8430    2.6280 C   0  0  0  0  0  0  0  0  0  0  0  0
    2.7800   -0.1900    2.6000 O   0  0  0  0  0  0  0  0  0  0  0  0
    2.1840    2.3110    1.0640 C   0  0  0  0  0  0  0  0  0  0  0  0
    2.1550    3.3620   -0.0330 C   0  0  0  0  0  0  0  0  0  0  0  0
    0.7180    3.6600   -0.4330 C   0  0  0  0  0  0  0  0  0  0  0  0
    0.6020    4.9270   -1.2620 C   0  0  0  0  0  0  0  0  0  0  0  0
   -0.8210    5.3410   -1.4220 N   0  0  0  0  0  0  0  0  0  0  0  0
    4.0610    1.2640    3.7240 N   0  0  0  0  0  0  0  0  0  0  0  0
    3.8730    0.5680    4.9870 C   0  0  2  0  0  0  0  0  0  0  0  0
    2.6750    1.1150    5.7420 C   0  0  0  0  0  0  0  0  0  0  0  0
    2.5920    2.3090    6.0040 O   0  0  0  0  0  0  0  0  0  0  0  0
    5.1170    0.6670    5.8610 C   0  0  0  0  0  0  0  0  0  0  0  0
    4.8590    0.1960    7.2790 C   0  0  0  0  0  0  0  0  0  0  0  0
    4.6990    1.0030    8.1910 O   0  0  0  0  0  0  0  0  0  0  0  0
    4.7980   -1.1180    7.4680 N   0  0  0  0  0  0  0  0  0  0  0  0
    1.7450    0.2420    6.0990 N   0  0  0  0  0  0  0  0  0  0  0  0
    0.5310    0.6800    6.7660 C   0  0  2  0  0  0  0  0  0  0  0  0
    0.5600    0.3560    8.2440 C   0  0  0  0  0  0  0  0  0  0  0  0
    0.5370    1.2480    9.0820 O   0  0  0  0  0  0  0  0  0  0  0  0
   -0.6990    0.0410    6.1480 C   0  0  2  0  0  0  0  0  0  0  0  0
   -0.5650    0.0360    4.6290 C   0  0  0  0  0  0  0  0  0  0  0  0
   -1.9440    0.7820    6.5850 C   0  0  0  0  0  0  0  0  0  0  0  0
   -1.7830   -0.4570    3.9270 C   0  0  0  0  0  0  0  0  0  0  0  0
    0.5910   -0.9270    8.5660 N   0  0  0  0  0  0  0  0  0  0  0  0
    0.7050   -1.3390    9.9530 C   0  0  2  0  0  0  0  0  0  0  0  0
    2.0160   -2.0480   10.1900 C   0  0  0  0  0  0  0  0  0  0  0  0
    2.3280   -3.0280    9.5210 O   0  0  0  0  0  0  0  0  0  0  0  0
   -0.4400   -2.2640   10.3700 C   0  0  2  0  0  0  0  0  0  0  0  0
   -1.7070   -1.4480   10.6000 C   0  0  0  0  0  0  0  0  0  0  0  0
   -0.0810   -3.0090   11.6350 C   0  0  0  0  0  0  0  0  0  0  0  0
   -1.4800   -0.2250   11.4530 C   0  0  0  0  0  0  0  0  0  0  0  0
    2.8020   -1.5280   11.1200 N   0  0  0  0  0  0  0  0  0  0  0  0
    3.9710   -2.2470   11.5950 C   0  0  2  0  0  0  0  0  0  0  0  0
    3.8000   -2.5820   13.0710 C   0  0  0  0  0  0  0  0  0  0  0  0
    3.9920   -1.7320   13.9320 O   0  0  0  0  0  0  0  0  0  0  0  0
    5.2230   -1.4020   11.3630 C   0  0  0  0  0  0  0  0  0  0  0  0
    6.4950   -1.9580   11.9450 C   0  0  0  0  0  0  0  0  0  0  0  0
    7.7030   -1.5740   11.1210 C   0  0  0  0  0  0  0  0  0  0  0  0
    7.5900   -0.8420   10.1380 O   0  0  0  0  0  0  0  0  0  0  0  0
    8.8700   -2.0680   11.5160 N   0  0  0  0  0  0  0  0  0  0  0  0
    7.0190    5.2300   11.2730 N   0  0  0  0  0  0  0  0  0  0  0  0
    7.3160    4.6710    9.9600 C   0  0  2  0  0  0  0  0  0  0  0  0
    6.1030    4.5110    9.0380 C   0  0  0  0  0  0  0  0  0  0  0  0
    6.2490    4.0890    7.8910 O   0  0  0  0  0  0  0  0  0  0  0  0
    7.9950    3.2960   10.1030 C   0  0  0  0  0  0  0  0  0  0  0  0
    9.2380    3.4050   10.9670 C   0  0  0  0  0  0  0  0  0  0  0  0
    7.0250    2.2880   10.6910 C   0  0  0  0  0  0  0  0  0  0  0  0
   -6.4240   -1.0360   -4.1860 N   0  0  0  0  0  0  0  0  0  0  0  0
   -5.2180   -1.7160   -4.6090 C   0  0  0  0  0  0  0  0  0  0  0  0
   -5.0430   -3.0520   -3.9320 C   0  0  0  0  0  0  0  0  0  0  0  0
   -5.9930   -3.6190   -3.4050 O   0  0  0  0  0  0  0  0  0  0  0  0
   -3.8180   -3.5580   -3.9470 N   0  0  0  0  0  0  0  0  0  0  0  0
   -3.5270   -4.8580   -3.3660 C   0  0  2  0  0  0  0  0  0  0  0  0
   -2.8890   -4.7380   -1.9890 C   0  0  0  0  0  0  0  0  0  0  0  0
   -1.7760   -4.2330   -1.8480 O   0  0  0  0  0  0  0  0  0  0  0  0
   -2.5980   -5.6740   -4.2750 C   0  0  0  0  0  0  0  0  0  0  0  0
   -2.1050   -6.9080   -3.5490 C   0  0  0  0  0  0  0  0  0  0  0  0
   -3.3120   -6.0460   -5.5590 C   0  0  0  0  0  0  0  0  0  0  0  0
   -3.6050   -5.2100   -0.9760 N   0  0  0  0  0  0  0  0  0  0  0  0
   -3.0990   -5.2140    0.3880 C   0  0  2  0  0  0  0  0  0  0  0  0
   -2.5240   -6.5680    0.7490 C   0  0  0  0  0  0  0  0  0  0  0  0
   -3.1570   -7.5940    0.5360 O   0  0  0  0  0  0  0  0  0  0  0  0
   -4.2040   -4.8490    1.3730 C   0  0  0  0  0  0  0  0  0  0  0  0
   -4.6640   -3.4260    1.2590 C   0  0  0  0  0  0  0  0  0  0  0  0
   -5.6520   -3.0670    0.3590 C   0  0  0  0  0  0  0  0  0  0  0  0
   -4.1050   -2.4370    2.0430 C   0  0  0  0  0  0  0  0  0  0  0  0
   -6.0730   -1.7620    0.2500 C   0  0  0  0  0  0  0  0  0  0  0  0
   -4.5190   -1.1330    1.9410 C   0  0  0  0  0  0  0  0  0  0  0  0
   -5.5000   -0.7990    1.0460 C   0  0  0  0  0  0  0  0  0  0  0  0
   -5.9050    0.5080    0.9510 O   0  0  0  0  0  0  0  0  0  0  0  0
   -1.3230   -6.5680    1.3050 N   0  0  0  0  0  0  0  0  0  0  0  0
   -0.6950   -7.8070    1.7240 C   0  0  2  0  0  0  0  0  0  0  0  0
   -0.4140   -7.7940    3.2160 C   0  0  0  0  0  0  0  0  0  0  0  0
    0.2160   -6.8740    3.7230 O   0  0  0  0  0  0  0  0  0  0  0  0
    0.6000   -8.0350    0.9550 C   0  0  0  0  0  0  0  0  0  0  0  0
    1.3720   -9.2400    1.4290 C   0  0  0  0  0  0  0  0  0  0  0  0
    2.8330   -9.1760    1.0300 C   0  0  0  0  0  0  0  0  0  0  0  0
    3.5440  -10.3440    1.5290 N   0  0  0  0  0  0  0  0  0  0  0  0
    4.8580  -10.5110    1.4600 C   0  0  0  0  0  0  0  0  0  0  0  0
    5.6220   -9.5810    0.9090 N   0  0  0  0  0  0  0  0  0  0  0  0
    5.4070  -11.6130    1.9460 N   0  0  0  0  0  0  0  0  0  0  0  0
    1.4010   -9.7030    6.4300 N   0  0  0  0  0  0  0  0  0  0  0  0
    2.3540  -10.7150    6.8440 C   0  0  2  0  0  0  0  0  0  0  0  0
    2.3480  -10.8570    8.3500 C   0  0  0  0  0  0  0  0  0  0  0  0
    2.5480   -9.8850    9.0700 O   0  0  0  0  0  0  0  0  0  0  0  0
    3.7610  -10.3860    6.3640 C   0  0  0  0  0  0  0  0  0  0  0  0
    4.7560  -11.4830    6.7010 C   0  0  0  0  0  0  0  0  0  0  0  0
    6.0160  -11.0030    7.8940 S   0  0  0  0  0  0  0  0  0  0  0  0
    6.9400   -9.8150    6.9260 C   0  0  0  0  0  0  0  0  0  0  0  0
   -2.6530  -12.0230    0.0260 N   0  0  0  0  0  0  0  0  0  0  0  0
   -2.9660  -10.7660   -0.6350 C   0  0  2  0  0  0  0  0  0  0  0  0
   -4.4700  -10.5700   -0.7210 C   0  0  0  0  0  0  0  0  0  0  0  0
   -5.2220  -11.5280   -0.8810 O   0  0  0  0  0  0  0  0  0  0  0  0
   -2.3280  -10.7090   -2.0240 C   0  0  0  0  0  0  0  0  0  0  0  0
   -0.8120  -10.7640   -1.9900 C   0  0  0  0  0  0  0  0  0  0  0  0
   -0.1910  -10.0990   -3.2020 C   0  0  0  0  0  0  0  0  0  0  0  0
    1.2570   -9.9770   -3.0700 N   0  0  0  0  0  0  0  0  0  0  0  0
    2.0200   -9.2350   -3.8630 C   0  0  0  0  0  0  0  0  0  0  0  0
    1.4780   -8.5420   -4.8500 N   0  0  0  0  0  0  0  0  0  0  0  0
    3.3270   -9.1830   -3.6660 N   0  0  0  0  0  0  0  0  0  0  0  0
  2  1  1  1
  3  2  1  0
  4  3  2  0
  5  2  1  0
  6  5  1  0
  7  6  2  0
  8  6  1  0
  9  7  1  0
 10  8  2  0
 11 10  1  0
 11  9  2  0
 12 11  1  0
 13  3  1  0
 14 13  1  0
 15 14  1  0
 16 15  2  0
 14 17  1  1
 18 17  1  0
 19 18  2  0
 20 18  1  0
 21 19  1  0
 22 21  1  0
 22 20  2  0
 23 20  1  0
 24 22  1  0
 25 23  2  0
 26 25  1  0
 26 24  2  0
 27 15  1  0
 28 27  1  0
 29 28  1  0
 30 29  2  0
 28 31  1  6
 32 31  1  0
 33 32  1  0
 34 33  2  0
 35 33  1  0
 36 29  1  0
 37 36  1  0
 38 37  1  0
 39 38  2  0
 37 40  1  1
 41 40  1  0
 42 41  1  0
 43 42  1  0
 44 38  1  0
 45 44  1  0
 46 45  1  0
 47 46  2  0
 45 48  1  6
 49 48  1  0
 50 49  1  0
 51 50  2  0
 52 50  1  0
 53 46  1  0
 54 53  1  0
 55 54  1  0
 56 55  2  0
 54 57  1  6
 58 57  1  0
 59 58  2  0
 60 58  1  0
 61 55  1  0
 62 61  1  0
 63 62  1  0
 64 63  2  0
 62 65  1  6
 66 65  1  0
 67 66  1  0
 68 67  1  0
 69 68  1  0
 70 63  1  0
 71 70  1  0
 72 71  1  0
 73 72  2  0
 71 74  1  1
 75 74  1  0
 76 75  2  0
 77 75  1  0
 78 72  1  0
 79 78  1  6
 80 79  1  0
 81 80  2  0
 82 79  1  0
 83 82  1  0
 82 84  1  6
 85 83  1  0
 86 80  1  0
 87 86  1  6
 88 87  1  0
 89 88  2  0
 90 87  1  0
 91 90  1  0
 90 92  1  1
 93 91  1  0
 94 88  1  0
 95 94  1  0
 96 95  1  0
 97 96  2  0
 95 98  1  1
 99 98  1  0
100 99  1  0
101100  2  0
102100  1  0
104103  1  1
105104  1  0
106105  2  0
107104  1  0
108107  1  0
109107  1  0
111110  1  0
112111  1  0
113112  2  0
114112  1  0
115114  1  6
116115  1  0
117116  2  0
118115  1  0
119118  1  0
120118  1  0
121116  1  0
122121  1  0
123122  1  0
124123  2  0
122125  1  1
126125  1  0
127126  2  0
128126  1  0
129127  1  0
130128  2  0
131129  2  0
131130  1  0
132131  1  0
133123  1  0
134133  1  0
135134  1  0
136135  2  0
134137  1  6
138137  1  0
139138  1  0
140139  1  0
141140  1  0
142141  1  0
143141  2  0
145144  1  1
146145  1  0
147146  2  0
148145  1  0
149148  1  0
150149  1  0
151150  1  0
153152  1  6
154153  1  0
155154  2  0
156153  1  0
157156  1  0
158157  1  0
159158  1  0
160159  1  0
161160  1  0
162160  2  0
M  END
$$$$
