
     RDKit          3D

115113  0  0  0  0  0  0  0  0999 V2000
   15.0760    6.1540  112.0330 N   0  0  0  0  0  0  0  0  0  0  0  0
   13.8840    6.9710  112.1690 C   0  0  2  0  0  0  0  0  0  0  0  0
   13.8170    8.0410  111.0730 C   0  0  0  0  0  0  0  0  0  0  0  0
   14.8380    8.5190  110.5880 O   0  0  0  0  0  0  0  0  0  0  0  0
   13.8850    7.6090  113.5630 C   0  0  0  0  0  0  0  0  0  0  0  0
   12.5870    8.0260  113.9510 O   0  0  0  0  0  0  0  0  0  0  0  0
   12.6060    8.4050  110.6710 N   0  0  0  0  0  0  0  0  0  0  0  0
   12.4030    9.5300  109.7560 C   0  0  2  0  0  0  0  0  0  0  0  0
   11.7780   10.6800  110.5360 C   0  0  0  0  0  0  0  0  0  0  0  0
   10.9110   10.4640  111.3710 O   0  0  0  0  0  0  0  0  0  0  0  0
   11.5030    9.1280  108.5770 C   0  0  0  0  0  0  0  0  0  0  0  0
   11.2060   10.2670  107.6260 C   0  0  0  0  0  0  0  0  0  0  0  0
   12.2380   10.9480  106.9880 C   0  0  0  0  0  0  0  0  0  0  0  0
    9.8940   10.6700  107.3600 C   0  0  0  0  0  0  0  0  0  0  0  0
   11.9780   11.9900  106.1070 C   0  0  0  0  0  0  0  0  0  0  0  0
    9.6260   11.7140  106.4820 C   0  0  0  0  0  0  0  0  0  0  0  0
   10.6750   12.3700  105.8610 C   0  0  0  0  0  0  0  0  0  0  0  0
   10.4390   13.4030  104.9940 O   0  0  0  0  0  0  0  0  0  0  0  0
    9.4830   -3.4170  115.1990 N   0  0  0  0  0  0  0  0  0  0  0  0
    8.6100   -2.4220  115.7730 C   0  0  2  0  0  0  0  0  0  0  0  0
    8.5320   -1.2270  114.8510 C   0  0  0  0  0  0  0  0  0  0  0  0
    9.5380   -0.8370  114.2540 O   0  0  0  0  0  0  0  0  0  0  0  0
    9.1160   -1.9840  117.1540 C   0  0  0  0  0  0  0  0  0  0  0  0
    8.4270   -0.7620  117.6770 C   0  0  0  0  0  0  0  0  0  0  0  0
    7.2260   -0.8680  118.3500 C   0  0  0  0  0  0  0  0  0  0  0  0
    8.9520    0.5000  117.4380 C   0  0  0  0  0  0  0  0  0  0  0  0
    6.5720    0.2680  118.8000 C   0  0  0  0  0  0  0  0  0  0  0  0
    8.3100    1.6380  117.8860 C   0  0  0  0  0  0  0  0  0  0  0  0
    7.1160    1.5250  118.5660 C   0  0  0  0  0  0  0  0  0  0  0  0
    6.9450    2.7530  115.3770 N   0  0  0  0  0  0  0  0  0  0  0  0
    6.3020    3.7220  116.2690 C   0  0  0  0  0  0  0  0  0  0  0  0
    6.2400    5.1050  115.6600 C   0  0  0  0  0  0  0  0  0  0  0  0
    7.0760    5.4690  114.8200 O   0  0  0  0  0  0  0  0  0  0  0  0
    5.2390    5.8710  116.0810 N   0  0  0  0  0  0  0  0  0  0  0  0
    5.1870    7.3030  115.8090 C   0  0  2  0  0  0  0  0  0  0  0  0
    4.3140    7.9810  116.8740 C   0  0  0  0  0  0  0  0  0  0  0  0
    4.0300    7.3800  117.9170 O   0  0  0  0  0  0  0  0  0  0  0  0
    4.6730    7.5650  114.3800 C   0  0  0  0  0  0  0  0  0  0  0  0
    3.2560    7.5730  114.2870 O   0  0  0  0  0  0  0  0  0  0  0  0
    3.9010    9.2230  116.6090 N   0  0  0  0  0  0  0  0  0  0  0  0
    2.8920    9.9220  117.4200 C   0  0  2  0  0  0  0  0  0  0  0  0
    1.4340    9.6450  116.9710 C   0  0  0  0  0  0  0  0  0  0  0  0
    0.5200   10.3800  117.3640 O   0  0  0  0  0  0  0  0  0  0  0  0
    3.1700   11.4370  117.4370 C   0  0  0  0  0  0  0  0  0  0  0  0
    4.4910   11.7290  117.8850 O   0  0  0  0  0  0  0  0  0  0  0  0
    1.2250    8.6230  116.1300 N   0  0  0  0  0  0  0  0  0  0  0  0
   -0.1150    8.0460  115.8870 C   0  0  2  0  0  0  0  0  0  0  0  0
   -0.1950    6.4820  115.8760 C   0  0  0  0  0  0  0  0  0  0  0  0
   -1.2530    5.9210  116.1590 O   0  0  0  0  0  0  0  0  0  0  0  0
   -0.7170    8.6480  114.6000 C   0  0  0  0  0  0  0  0  0  0  0  0
   -1.9930    9.4660  114.8250 C   0  0  0  0  0  0  0  0  0  0  0  0
   -2.7440    9.7400  113.5270 C   0  0  0  0  0  0  0  0  0  0  0  0
   -1.9700   10.5540  112.5830 N   0  0  0  0  0  0  0  0  0  0  0  0
   -2.2740   10.7500  111.2940 C   0  0  0  0  0  0  0  0  0  0  0  0
   -3.3550   10.1950  110.7360 N   0  0  0  0  0  0  0  0  0  0  0  0
   -1.4800   11.5130  110.5450 N   0  0  0  0  0  0  0  0  0  0  0  0
    0.9090    5.7910  115.5930 N   0  0  0  0  0  0  0  0  0  0  0  0
    0.9420    4.3320  115.4150 C   0  0  2  0  0  0  0  0  0  0  0  0
    1.8670    3.7140  116.4630 C   0  0  0  0  0  0  0  0  0  0  0  0
    2.7210    4.4030  117.0140 O   0  0  0  0  0  0  0  0  0  0  0  0
    1.4730    4.0440  114.0000 C   0  0  0  0  0  0  0  0  0  0  0  0
    1.3170    2.6240  113.4940 C   0  0  0  0  0  0  0  0  0  0  0  0
    2.2040    1.6170  113.8940 C   0  0  0  0  0  0  0  0  0  0  0  0
    0.3100    2.2920  112.5760 C   0  0  0  0  0  0  0  0  0  0  0  0
    2.0730    0.3180  113.4280 C   0  0  0  0  0  0  0  0  0  0  0  0
    0.1750    0.9910  112.1040 C   0  0  0  0  0  0  0  0  0  0  0  0
    1.0620    0.0110  112.5340 C   0  0  0  0  0  0  0  0  0  0  0  0
    0.9580   -1.2790  112.0880 O   0  0  0  0  0  0  0  0  0  0  0  0
    1.6890    2.4250  116.7390 N   0  0  0  0  0  0  0  0  0  0  0  0
    2.6060    1.6540  117.6020 C   0  0  2  0  0  0  0  0  0  0  0  0
    2.2930    0.1520  117.5090 C   0  0  0  0  0  0  0  0  0  0  0  0
    1.1510   -0.2470  117.7260 O   0  0  0  0  0  0  0  0  0  0  0  0
    2.5060    2.1240  119.0680 C   0  0  0  0  0  0  0  0  0  0  0  0
    3.3460    1.3750  119.9440 O   0  0  0  0  0  0  0  0  0  0  0  0
    2.3890   12.8990  110.5960 N   0  0  0  0  0  0  0  0  0  0  0  0
    2.0620   14.3200  110.7810 C   0  0  2  0  0  0  0  0  0  0  0  0
    3.2950   15.1380  110.5160 C   0  0  0  0  0  0  0  0  0  0  0  0
    4.3530   14.7790  111.0150 O   0  0  0  0  0  0  0  0  0  0  0  0
    1.6540   14.6550  112.2270 C   0  0  0  0  0  0  0  0  0  0  0  0
    0.4140   13.9710  112.7800 C   0  0  0  0  0  0  0  0  0  0  0  0
    0.7490   12.8720  113.7730 C   0  0  0  0  0  0  0  0  0  0  0  0
    0.6560   13.1330  114.9940 O   0  0  0  0  0  0  0  0  0  0  0  0
    1.1210   11.7580  113.3320 O   0  0  0  0  0  0  0  0  0  0  0  0
    6.5100   15.1340  112.9770 N   0  0  0  0  0  0  0  0  0  0  0  0
    6.5770   13.9260  113.7890 C   0  0  2  0  0  0  0  0  0  0  0  0
    7.6710   12.9550  113.3150 C   0  0  0  0  0  0  0  0  0  0  0  0
    8.0180   12.9100  112.1350 O   0  0  0  0  0  0  0  0  0  0  0  0
    5.2120   13.2330  113.7680 C   0  0  0  0  0  0  0  0  0  0  0  0
    5.1430   12.0110  114.6740 C   0  0  0  0  0  0  0  0  0  0  0  0
    5.9100   11.9190  115.6600 O   0  0  0  0  0  0  0  0  0  0  0  0
    4.2940   11.1320  114.3970 O   0  0  0  0  0  0  0  0  0  0  0  0
    8.2110   12.1910  114.2620 N   0  0  0  0  0  0  0  0  0  0  0  0
    9.1290   11.0900  113.9670 C   0  0  2  0  0  0  0  0  0  0  0  0
    8.3440    9.8000  113.7300 C   0  0  0  0  0  0  0  0  0  0  0  0
    7.2730    9.5900  114.3060 O   0  0  0  0  0  0  0  0  0  0  0  0
   10.1220   10.8470  115.1190 C   0  0  0  0  0  0  0  0  0  0  0  0
   11.1190   11.9650  115.3870 C   0  0  0  0  0  0  0  0  0  0  0  0
   11.9460   11.7250  116.6540 C   0  0  0  0  0  0  0  0  0  0  0  0
   12.9540   10.5760  116.5230 C   0  0  0  0  0  0  0  0  0  0  0  0
   13.6310   10.2220  117.8080 N   0  0  0  0  0  0  0  0  0  0  0  0
    8.9010    8.9430  112.8850 N   0  0  0  0  0  0  0  0  0  0  0  0
    8.4480    7.5660  112.7430 C   0  0  2  0  0  0  0  0  0  0  0  0
    9.6980    6.7050  112.7860 C   0  0  0  0  0  0  0  0  0  0  0  0
   10.6390    6.9600  112.0410 O   0  0  0  0  0  0  0  0  0  0  0  0
    7.6320    7.3310  111.4410 C   0  0  2  0  0  0  0  0  0  0  0  0
    7.3100    5.8480  111.2740 C   0  0  0  0  0  0  0  0  0  0  0  0
    8.3490    7.8300  110.1870 C   0  0  0  0  0  0  0  0  0  0  0  0
    6.1610    5.5950  110.3310 C   0  0  0  0  0  0  0  0  0  0  0  0
    9.7250    5.7080  113.6630 N   0  0  0  0  0  0  0  0  0  0  0  0
   10.9200    4.8710  113.8100 C   0  0  2  0  0  0  0  0  0  0  0  0
   10.6310    3.4270  113.4580 C   0  0  0  0  0  0  0  0  0  0  0  0
    9.5700    2.9150  113.7570 O   0  0  0  0  0  0  0  0  0  0  0  0
   11.4950    4.9530  115.2390 C   0  0  2  0  0  0  0  0  0  0  0  0
   11.7900    6.3210  115.5490 O   0  0  0  0  0  0  0  0  0  0  0  0
   12.7820    4.1060  115.3900 C   0  0  0  0  0  0  0  0  0  0  0  0
  2  1  1  6
  3  2  1  0
  4  3  2  0
  5  2  1  0
  6  5  1  0
  7  3  1  0
  8  7  1  0
  9  8  1  0
 10  9  2  0
  8 11  1  6
 12 11  1  0
 13 12  2  0
 14 12  1  0
 15 13  1  0
 16 14  2  0
 17 16  1  0
 17 15  2  0
 18 17  1  0
 20 19  1  6
 21 20  1  0
 22 21  2  0
 23 20  1  0
 24 23  1  0
 25 24  2  0
 26 24  1  0
 27 25  1  0
 28 26  2  0
 29 28  1  0
 29 27  2  0
 31 30  1  0
 32 31  1  0
 33 32  2  0
 34 32  1  0
 35 34  1  0
 36 35  1  0
 37 36  2  0
 35 38  1  6
 39 38  1  0
 40 36  1  0
 41 40  1  0
 42 41  1  0
 43 42  2  0
 41 44  1  6
 45 44  1  0
 46 42  1  0
 47 46  1  0
 48 47  1  0
 49 48  2  0
 47 50  1  6
 51 50  1  0
 52 51  1  0
 53 52  1  0
 54 53  1  0
 55 54  1  0
 56 54  2  0
 57 48  1  0
 58 57  1  0
 59 58  1  0
 60 59  2  0
 58 61  1  6
 62 61  1  0
 63 62  2  0
 64 62  1  0
 65 63  1  0
 66 64  2  0
 67 66  1  0
 67 65  2  0
 68 67  1  0
 69 59  1  0
 70 69  1  0
 71 70  1  0
 72 71  2  0
 70 73  1  1
 74 73  1  0
 76 75  1  1
 77 76  1  0
 78 77  2  0
 79 76  1  0
 80 79  1  0
 81 80  1  0
 82 81  2  0
 83 81  1  0
 85 84  1  6
 86 85  1  0
 87 86  2  0
 88 85  1  0
 89 88  1  0
 90 89  2  0
 91 89  1  0
 92 86  1  0
 93 92  1  0
 94 93  1  0
 95 94  2  0
 93 96  1  1
 97 96  1  0
 98 97  1  0
 99 98  1  0
100 99  1  0
101 94  1  0
102101  1  6
103102  1  0
104103  2  0
105102  1  0
106105  1  0
105107  1  6
108106  1  0
109103  1  0
110109  1  1
111110  1  0
112111  2  0
113110  1  0
114113  1  0
113115  1  6
M  END
$$$$
