
     RDKit          3D

106100  0  0  0  0  0  0  0  0999 V2000
  -86.0310   26.1980   -3.2210 N   0  0  0  0  0  0  0  0  0  0  0  0
  -86.2760   26.5370   -1.8310 C   0  0  2  0  0  0  0  0  0  0  0  0
  -87.6520   27.1750   -1.7240 C   0  0  0  0  0  0  0  0  0  0  0  0
  -88.2550   27.5780   -2.7250 O   0  0  0  0  0  0  0  0  0  0  0  0
  -85.1970   27.4720   -1.2690 C   0  0  0  0  0  0  0  0  0  0  0  0
  -84.7260   28.5410   -2.2470 C   0  0  0  0  0  0  0  0  0  0  0  0
  -83.7710   29.5460   -1.6130 C   0  0  0  0  0  0  0  0  0  0  0  0
  -84.2490   30.4780   -0.9250 O   0  0  0  0  0  0  0  0  0  0  0  0
  -82.5420   29.3990   -1.8020 O   0  0  0  0  0  0  0  0  0  0  0  0
  -88.1470   27.2570   -0.4920 N   0  0  0  0  0  0  0  0  0  0  0  0
  -89.4220   27.9040   -0.2060 C   0  0  2  0  0  0  0  0  0  0  0  0
  -89.2630   28.6840    1.0910 C   0  0  0  0  0  0  0  0  0  0  0  0
  -89.2220   28.0880    2.1710 O   0  0  0  0  0  0  0  0  0  0  0  0
  -90.5520   26.8850   -0.1040 C   0  0  0  0  0  0  0  0  0  0  0  0
  -91.8100   27.5330   -0.0860 O   0  0  0  0  0  0  0  0  0  0  0  0
  -89.1680   30.0090    0.9770 N   0  0  0  0  0  0  0  0  0  0  0  0
  -88.9500   30.9110    2.1110 C   0  0  2  0  0  0  0  0  0  0  0  0
  -87.8050   30.4140    2.9940 C   0  0  0  0  0  0  0  0  0  0  0  0
  -87.9750   30.0930    4.1730 O   0  0  0  0  0  0  0  0  0  0  0  0
  -90.2380   31.0960    2.9180 C   0  0  0  0  0  0  0  0  0  0  0  0
  -91.2580   31.9580    2.1950 C   0  0  0  0  0  0  0  0  0  0  0  0
  -90.8990   32.8300    1.4010 O   0  0  0  0  0  0  0  0  0  0  0  0
  -92.5390   31.7160    2.4630 N   0  0  0  0  0  0  0  0  0  0  0  0
  -86.6210   30.3430    2.3840 N   0  0  0  0  0  0  0  0  0  0  0  0
  -85.4090   29.9640    3.0770 C   0  0  0  0  0  0  0  0  0  0  0  0
  -85.2360   28.4860    3.3440 C   0  0  0  0  0  0  0  0  0  0  0  0
  -84.1420   28.0740    3.7480 O   0  0  0  0  0  0  0  0  0  0  0  0
  -86.2670   27.6710    3.1330 N   0  0  0  0  0  0  0  0  0  0  0  0
  -86.1470   26.2540    3.4480 C   0  0  2  0  0  0  0  0  0  0  0  0
  -85.9790   25.4410    2.1790 C   0  0  0  0  0  0  0  0  0  0  0  0
  -86.7510   25.6220    1.2260 O   0  0  0  0  0  0  0  0  0  0  0  0
  -87.3700   25.7720    4.2180 C   0  0  0  0  0  0  0  0  0  0  0  0
  -87.3580   26.1980    5.6750 C   0  0  0  0  0  0  0  0  0  0  0  0
  -86.1930   25.5990    6.4310 C   0  0  0  0  0  0  0  0  0  0  0  0
  -85.1680   26.2530    6.6400 O   0  0  0  0  0  0  0  0  0  0  0  0
  -86.3390   24.3410    6.8410 N   0  0  0  0  0  0  0  0  0  0  0  0
 -101.2210   29.0810   -2.2850 N   0  0  0  0  0  0  0  0  0  0  0  0
 -100.5120   30.3100   -2.5720 C   0  0  0  0  0  0  0  0  0  0  0  0
  -99.0850   30.3550   -2.0850 C   0  0  0  0  0  0  0  0  0  0  0  0
  -98.5280   31.4460   -1.9360 O   0  0  0  0  0  0  0  0  0  0  0  0
  -95.0240   30.2460   -1.9680 N   0  0  0  0  0  0  0  0  0  0  0  0
  -94.0050   30.8140   -2.8410 C   0  0  2  0  0  0  0  0  0  0  0  0
  -92.8330   29.8440   -2.8990 C   0  0  0  0  0  0  0  0  0  0  0  0
  -92.2480   29.4970   -1.8660 O   0  0  0  0  0  0  0  0  0  0  0  0
  -93.5540   32.1980   -2.3540 C   0  0  0  0  0  0  0  0  0  0  0  0
  -92.4190   32.7190   -3.2240 C   0  0  0  0  0  0  0  0  0  0  0  0
  -94.7260   33.1630   -2.3580 C   0  0  0  0  0  0  0  0  0  0  0  0
  -89.0470   28.9400   -4.9810 N   0  0  0  0  0  0  0  0  0  0  0  0
  -87.9530   29.6620   -5.6130 C   0  0  2  0  0  0  0  0  0  0  0  0
  -87.0270   28.6930   -6.3240 C   0  0  0  0  0  0  0  0  0  0  0  0
  -86.7500   27.6010   -5.8250 O   0  0  0  0  0  0  0  0  0  0  0  0
  -87.1560   30.4850   -4.5920 C   0  0  0  0  0  0  0  0  0  0  0  0
  -87.8130   31.7060   -4.3030 O   0  0  0  0  0  0  0  0  0  0  0  0
  -83.2910   28.5510   -7.4630 N   0  0  0  0  0  0  0  0  0  0  0  0
  -81.9790   29.1620   -7.2920 C   0  0  2  0  0  0  0  0  0  0  0  0
  -81.0230   28.5900   -8.3290 C   0  0  0  0  0  0  0  0  0  0  0  0
  -80.7810   27.3780   -8.3550 O   0  0  0  0  0  0  0  0  0  0  0  0
  -81.4380   28.9260   -5.8840 C   0  0  0  0  0  0  0  0  0  0  0  0
  -82.2540   29.5580   -4.9150 O   0  0  0  0  0  0  0  0  0  0  0  0
  -74.9310   34.0690   -8.5450 N   0  0  0  0  0  0  0  0  0  0  0  0
  -76.2080   33.6550   -7.9840 C   0  0  2  0  0  0  0  0  0  0  0  0
  -77.3500   34.4560   -8.5950 C   0  0  0  0  0  0  0  0  0  0  0  0
  -77.1880   35.6220   -8.9640 O   0  0  0  0  0  0  0  0  0  0  0  0
  -76.2180   33.8280   -6.4550 C   0  0  0  0  0  0  0  0  0  0  0  0
  -77.3870   33.1670   -5.7560 C   0  0  0  0  0  0  0  0  0  0  0  0
  -78.5660   33.8650   -5.5130 C   0  0  0  0  0  0  0  0  0  0  0  0
  -77.3080   31.8440   -5.3320 C   0  0  0  0  0  0  0  0  0  0  0  0
  -79.6390   33.2560   -4.8750 C   0  0  0  0  0  0  0  0  0  0  0  0
  -78.3700   31.2290   -4.6870 C   0  0  0  0  0  0  0  0  0  0  0  0
  -79.5310   31.9380   -4.4600 C   0  0  0  0  0  0  0  0  0  0  0  0
  -80.5850   31.3250   -3.8160 O   0  0  0  0  0  0  0  0  0  0  0  0
  -82.0870   33.9940   -8.4170 N   0  0  0  0  0  0  0  0  0  0  0  0
  -83.2150   33.1160   -8.1450 C   0  0  2  0  0  0  0  0  0  0  0  0
  -84.5110   33.7680   -8.6070 C   0  0  0  0  0  0  0  0  0  0  0  0
  -84.6630   34.9910   -8.5690 O   0  0  0  0  0  0  0  0  0  0  0  0
  -83.2990   32.7400   -6.6590 C   0  0  0  0  0  0  0  0  0  0  0  0
  -83.9750   33.7610   -5.7700 C   0  0  0  0  0  0  0  0  0  0  0  0
  -84.2530   33.2180   -4.3790 C   0  0  0  0  0  0  0  0  0  0  0  0
  -85.0890   33.7500   -3.6500 O   0  0  0  0  0  0  0  0  0  0  0  0
  -83.5460   32.1550   -4.0030 N   0  0  0  0  0  0  0  0  0  0  0  0
  -85.4390   32.9320   -9.0590 N   0  0  0  0  0  0  0  0  0  0  0  0
  -86.7560   33.3670   -9.4940 C   0  0  2  0  0  0  0  0  0  0  0  0
  -87.8190   32.6430   -8.6780 C   0  0  0  0  0  0  0  0  0  0  0  0
  -87.6510   31.4810   -8.3000 O   0  0  0  0  0  0  0  0  0  0  0  0
  -86.9710   33.1040  -10.9940 C   0  0  0  0  0  0  0  0  0  0  0  0
  -86.0370   33.8840  -11.9040 C   0  0  0  0  0  0  0  0  0  0  0  0
  -88.9140   33.3370   -8.4050 N   0  0  0  0  0  0  0  0  0  0  0  0
  -89.9840   32.7810   -7.5960 C   0  0  2  0  0  0  0  0  0  0  0  0
  -91.1920   32.4440   -8.4580 C   0  0  0  0  0  0  0  0  0  0  0  0
  -91.4300   33.0570   -9.5020 O   0  0  0  0  0  0  0  0  0  0  0  0
  -90.3850   33.7420   -6.4770 C   0  0  0  0  0  0  0  0  0  0  0  0
  -89.3990   33.7450   -5.4560 O   0  0  0  0  0  0  0  0  0  0  0  0
  -91.9460   31.4470   -8.0040 N   0  0  0  0  0  0  0  0  0  0  0  0
  -93.1240   30.9480   -8.6960 C   0  0  2  0  0  0  0  0  0  0  0  0
  -94.2500   30.8170   -7.6830 C   0  0  0  0  0  0  0  0  0  0  0  0
  -94.0590   30.2410   -6.6070 O   0  0  0  0  0  0  0  0  0  0  0  0
  -92.8370   29.6010   -9.3640 C   0  0  0  0  0  0  0  0  0  0  0  0
  -93.9830   28.9540  -10.1390 C   0  0  0  0  0  0  0  0  0  0  0  0
  -94.4600   29.8640  -11.2540 C   0  0  0  0  0  0  0  0  0  0  0  0
  -93.5540   27.6090  -10.6960 C   0  0  0  0  0  0  0  0  0  0  0  0
  -95.4170   31.3540   -8.0220 N   0  0  0  0  0  0  0  0  0  0  0  0
  -96.5210   31.3920   -7.0770 C   0  0  2  0  0  0  0  0  0  0  0  0
  -97.8370   31.4370   -7.8370 C   0  0  0  0  0  0  0  0  0  0  0  0
  -97.9170   31.9830   -8.9400 O   0  0  0  0  0  0  0  0  0  0  0  0
  -96.3980   32.5980   -6.1400 C   0  0  0  0  0  0  0  0  0  0  0  0
  -97.6190   32.8420   -5.4750 O   0  0  0  0  0  0  0  0  0  0  0  0
  2  1  1  6
  3  2  1  0
  4  3  2  0
  5  2  1  0
  6  5  1  0
  7  6  1  0
  8  7  2  0
  9  7  1  0
 10  3  1  0
 11 10  1  0
 12 11  1  0
 13 12  2  0
 11 14  1  1
 15 14  1  0
 16 12  1  0
 17 16  1  0
 18 17  1  0
 19 18  2  0
 17 20  1  1
 21 20  1  0
 22 21  2  0
 23 21  1  0
 24 18  1  0
 25 24  1  0
 26 25  1  0
 27 26  2  0
 28 26  1  0
 29 28  1  0
 30 29  1  0
 31 30  2  0
 29 32  1  6
 33 32  1  0
 34 33  1  0
 35 34  2  0
 36 34  1  0
 38 37  1  0
 39 38  1  0
 40 39  2  0
 42 41  1  1
 43 42  1  0
 44 43  2  0
 45 42  1  0
 46 45  1  0
 47 45  1  0
 49 48  1  1
 50 49  1  0
 51 50  2  0
 52 49  1  0
 53 52  1  0
 55 54  1  1
 56 55  1  0
 57 56  2  0
 58 55  1  0
 59 58  1  0
 61 60  1  6
 62 61  1  0
 63 62  2  0
 64 61  1  0
 65 64  1  0
 66 65  2  0
 67 65  1  0
 68 66  1  0
 69 67  2  0
 70 69  1  0
 70 68  2  0
 71 70  1  0
 73 72  1  1
 74 73  1  0
 75 74  2  0
 76 73  1  0
 77 76  1  0
 78 77  1  0
 79 78  2  0
 80 78  1  0
 81 74  1  0
 82 81  1  0
 83 82  1  0
 84 83  2  0
 82 85  1  6
 86 85  1  0
 87 83  1  0
 88 87  1  0
 89 88  1  0
 90 89  2  0
 88 91  1  1
 92 91  1  0
 93 89  1  0
 94 93  1  0
 95 94  1  0
 96 95  2  0
 94 97  1  1
 98 97  1  0
 99 98  1  0
100 98  1  0
101 95  1  0
102101  1  0
103102  1  0
104103  2  0
102105  1  6
106105  1  0
M  END
$$$$
