
     RDKit          3D

154152  0  0  0  0  0  0  0  0999 V2000
   22.1390  -21.5390   31.1780 N   0  0  0  0  0  0  0  0  0  0  0  0
   22.7020  -22.8800   31.1780 C   0  0  2  0  0  0  0  0  0  0  0  0
   24.1790  -22.8300   30.8240 C   0  0  0  0  0  0  0  0  0  0  0  0
   24.6030  -22.0270   29.9950 O   0  0  0  0  0  0  0  0  0  0  0  0
   21.9650  -23.7680   30.1660 C   0  0  0  0  0  0  0  0  0  0  0  0
   20.7190  -24.4620   30.6840 C   0  0  0  0  0  0  0  0  0  0  0  0
   19.6370  -24.7040   29.8450 C   0  0  0  0  0  0  0  0  0  0  0  0
   20.6320  -24.8980   31.9980 C   0  0  0  0  0  0  0  0  0  0  0  0
   18.5010  -25.3440   30.3080 C   0  0  0  0  0  0  0  0  0  0  0  0
   19.5050  -25.5340   32.4650 C   0  0  0  0  0  0  0  0  0  0  0  0
   18.4440  -25.7570   31.6210 C   0  0  0  0  0  0  0  0  0  0  0  0
   17.3280  -26.3940   32.1070 O   0  0  0  0  0  0  0  0  0  0  0  0
   24.9560  -23.6900   31.4730 N   0  0  0  0  0  0  0  0  0  0  0  0
   26.3440  -23.9200   31.1030 C   0  0  2  0  0  0  0  0  0  0  0  0
   26.5570  -25.4210   31.0110 C   0  0  0  0  0  0  0  0  0  0  0  0
   26.0530  -26.1750   31.8460 O   0  0  0  0  0  0  0  0  0  0  0  0
   27.2940  -23.3000   32.1260 C   0  0  0  0  0  0  0  0  0  0  0  0
   27.4720  -21.8240   31.9510 C   0  0  0  0  0  0  0  0  0  0  0  0
   26.9100  -20.8330   32.7020 C   0  0  0  0  0  0  0  0  0  0  0  0
   28.2650  -21.1700   30.9530 C   0  0  0  0  0  0  0  0  0  0  0  0
   27.3080  -19.6030   32.2370 N   0  0  0  0  0  0  0  0  0  0  0  0
   28.1390  -19.7820   31.1630 C   0  0  0  0  0  0  0  0  0  0  0  0
   29.0710  -21.6240   29.9040 C   0  0  0  0  0  0  0  0  0  0  0  0
   28.7880  -18.8450   30.3630 C   0  0  0  0  0  0  0  0  0  0  0  0
   29.7160  -20.6920   29.1120 C   0  0  0  0  0  0  0  0  0  0  0  0
   29.5700  -19.3190   29.3450 C   0  0  0  0  0  0  0  0  0  0  0  0
   27.2920  -25.8540   29.9920 N   0  0  0  0  0  0  0  0  0  0  0  0
   27.4120  -27.2760   29.6990 C   0  0  2  0  0  0  0  0  0  0  0  0
   28.7880  -27.6660   29.1730 C   0  0  0  0  0  0  0  0  0  0  0  0
   29.6010  -26.8150   28.8170 O   0  0  0  0  0  0  0  0  0  0  0  0
   26.3640  -27.6740   28.6580 C   0  0  0  0  0  0  0  0  0  0  0  0
   24.9330  -27.3430   29.0380 C   0  0  0  0  0  0  0  0  0  0  0  0
   23.9600  -27.6930   27.9360 C   0  0  0  0  0  0  0  0  0  0  0  0
   23.4320  -28.8240   27.9460 O   0  0  0  0  0  0  0  0  0  0  0  0
   23.7320  -26.8420   27.0500 O   0  0  0  0  0  0  0  0  0  0  0  0
   29.0320  -28.9720   29.1420 N   0  0  0  0  0  0  0  0  0  0  0  0
   30.1590  -29.5500   28.4260 C   0  0  2  0  0  0  0  0  0  0  0  0
   29.6270  -30.7760   27.7030 C   0  0  0  0  0  0  0  0  0  0  0  0
   28.4780  -31.1680   27.9140 O   0  0  0  0  0  0  0  0  0  0  0  0
   31.2900  -29.9340   29.3800 C   0  0  0  0  0  0  0  0  0  0  0  0
   31.9880  -28.7450   30.0110 C   0  0  0  0  0  0  0  0  0  0  0  0
   33.4870  -29.1970   30.9020 S   0  0  0  0  0  0  0  0  0  0  0  0
   34.5800  -29.6150   29.5450 C   0  0  0  0  0  0  0  0  0  0  0  0
   30.4500  -31.3800   26.8530 N   0  0  0  0  0  0  0  0  0  0  0  0
   29.9910  -32.4930   26.0320 C   0  0  2  0  0  0  0  0  0  0  0  0
   29.4800  -33.6430   26.9020 C   0  0  0  0  0  0  0  0  0  0  0  0
   30.2590  -34.3310   27.5600 O   0  0  0  0  0  0  0  0  0  0  0  0
   31.1080  -32.9680   25.1000 C   0  0  0  0  0  0  0  0  0  0  0  0
   30.6000  -33.5530   23.7930 C   0  0  0  0  0  0  0  0  0  0  0  0
   31.6840  -33.6640   22.7390 C   0  0  0  0  0  0  0  0  0  0  0  0
   31.3640  -33.5220   21.5400 O   0  0  0  0  0  0  0  0  0  0  0  0
   32.8550  -33.8950   23.1080 O   0  0  0  0  0  0  0  0  0  0  0  0
   28.1600  -33.8200   26.9080 N   0  0  0  0  0  0  0  0  0  0  0  0
   27.4990  -34.8740   27.6790 C   0  0  2  0  0  0  0  0  0  0  0  0
   27.7410  -34.7260   29.1820 C   0  0  0  0  0  0  0  0  0  0  0  0
   27.9110  -35.7150   29.8970 O   0  0  0  0  0  0  0  0  0  0  0  0
   27.9340  -36.2620   27.1910 C   0  0  0  0  0  0  0  0  0  0  0  0
   27.5120  -36.5330   25.7600 C   0  0  0  0  0  0  0  0  0  0  0  0
   27.2470  -35.5610   25.0200 O   0  0  0  0  0  0  0  0  0  0  0  0
   27.4420  -37.7190   25.3740 O   0  0  0  0  0  0  0  0  0  0  0  0
   27.7430  -33.4830   29.6530 N   0  0  0  0  0  0  0  0  0  0  0  0
   27.8740  -33.1960   31.0780 C   0  0  2  0  0  0  0  0  0  0  0  0
   27.3380  -31.7980   31.3740 C   0  0  0  0  0  0  0  0  0  0  0  0
   27.5660  -30.8600   30.6080 O   0  0  0  0  0  0  0  0  0  0  0  0
   29.3360  -33.3200   31.5280 C   0  0  0  0  0  0  0  0  0  0  0  0
   29.5780  -33.0370   33.0140 C   0  0  0  0  0  0  0  0  0  0  0  0
   28.8310  -34.0180   33.9140 C   0  0  0  0  0  0  0  0  0  0  0  0
   29.0630  -33.7160   35.3890 C   0  0  0  0  0  0  0  0  0  0  0  0
   28.2570  -34.6010   36.2800 N   0  0  0  0  0  0  0  0  0  0  0  0
   26.6210  -31.6710   32.4860 N   0  0  0  0  0  0  0  0  0  0  0  0
   26.0230  -30.4020   32.8860 C   0  0  2  0  0  0  0  0  0  0  0  0
   26.7030  -29.7890   34.1070 C   0  0  0  0  0  0  0  0  0  0  0  0
   26.8600  -30.4440   35.1390 O   0  0  0  0  0  0  0  0  0  0  0  0
   24.5380  -30.5900   33.1780 C   0  0  0  0  0  0  0  0  0  0  0  0
   23.9550  -29.4360   33.9650 C   0  0  0  0  0  0  0  0  0  0  0  0
   23.8860  -29.4800   35.1930 O   0  0  0  0  0  0  0  0  0  0  0  0
   23.5450  -28.3900   33.2620 N   0  0  0  0  0  0  0  0  0  0  0  0
   25.7720  -26.3870   35.1860 N   0  0  0  0  0  0  0  0  0  0  0  0
   24.7850  -25.5180   35.8210 C   0  0  2  0  0  0  0  0  0  0  0  0
   23.3920  -25.6960   35.2280 C   0  0  0  0  0  0  0  0  0  0  0  0
   23.2320  -25.9860   34.0420 O   0  0  0  0  0  0  0  0  0  0  0  0
   25.2300  -24.0390   35.7400 C   0  0  2  0  0  0  0  0  0  0  0  0
   26.2700  -23.7650   36.8220 C   0  0  0  0  0  0  0  0  0  0  0  0
   24.0550  -23.0700   35.9080 C   0  0  0  0  0  0  0  0  0  0  0  0
   27.5640  -23.2720   36.2790 C   0  0  0  0  0  0  0  0  0  0  0  0
   22.3950  -25.5130   36.0860 N   0  0  0  0  0  0  0  0  0  0  0  0
   20.9970  -25.6920   35.7290 C   0  0  2  0  0  0  0  0  0  0  0  0
   20.1710  -24.6510   36.4800 C   0  0  0  0  0  0  0  0  0  0  0  0
   19.8770  -24.8140   37.6660 O   0  0  0  0  0  0  0  0  0  0  0  0
   20.5510  -27.1090   36.0910 C   0  0  0  0  0  0  0  0  0  0  0  0
   19.1940  -27.5080   35.5460 C   0  0  0  0  0  0  0  0  0  0  0  0
   19.2580  -28.7840   34.7300 C   0  0  0  0  0  0  0  0  0  0  0  0
   18.7730  -28.8350   33.6000 O   0  0  0  0  0  0  0  0  0  0  0  0
   19.8610  -29.8220   35.2990 N   0  0  0  0  0  0  0  0  0  0  0  0
   16.8060  -22.3520   36.3630 N   0  0  0  0  0  0  0  0  0  0  0  0
   15.4820  -22.1270   35.7820 C   0  0  2  0  0  0  0  0  0  0  0  0
   14.6010  -21.2330   36.6650 C   0  0  0  0  0  0  0  0  0  0  0  0
   13.9990  -20.2750   36.1740 O   0  0  0  0  0  0  0  0  0  0  0  0
   14.7500  -23.4680   35.5250 C   0  0  0  0  0  0  0  0  0  0  0  0
   13.3800  -23.2250   34.8670 C   0  0  0  0  0  0  0  0  0  0  0  0
   15.6330  -24.4110   34.6880 C   0  0  0  0  0  0  0  0  0  0  0  0
   38.0790  -27.9280   27.7280 N   0  0  0  0  0  0  0  0  0  0  0  0
   37.1010  -28.3540   26.7460 C   0  0  0  0  0  0  0  0  0  0  0  0
   36.2060  -27.2180   26.2970 C   0  0  0  0  0  0  0  0  0  0  0  0
   36.3850  -26.0710   26.7070 O   0  0  0  0  0  0  0  0  0  0  0  0
   35.2350  -27.5450   25.4510 N   0  0  0  0  0  0  0  0  0  0  0  0
   34.3210  -26.5520   24.9090 C   0  0  2  0  0  0  0  0  0  0  0  0
   33.0990  -26.4030   25.8110 C   0  0  0  0  0  0  0  0  0  0  0  0
   32.3880  -27.3710   26.0770 O   0  0  0  0  0  0  0  0  0  0  0  0
   33.8570  -26.9410   23.4930 C   0  0  0  0  0  0  0  0  0  0  0  0
   32.9270  -25.8650   22.9160 C   0  0  0  0  0  0  0  0  0  0  0  0
   35.0650  -27.2050   22.5860 C   0  0  0  0  0  0  0  0  0  0  0  0
   32.8700  -25.1810   26.2820 N   0  0  0  0  0  0  0  0  0  0  0  0
   31.6870  -24.8570   27.0680 C   0  0  2  0  0  0  0  0  0  0  0  0
   30.6550  -24.2060   26.1620 C   0  0  0  0  0  0  0  0  0  0  0  0
   31.0090  -23.5940   25.1570 O   0  0  0  0  0  0  0  0  0  0  0  0
   32.0510  -23.9050   28.2060 C   0  0  0  0  0  0  0  0  0  0  0  0
   32.9550  -24.5170   29.2490 C   0  0  0  0  0  0  0  0  0  0  0  0
   34.2940  -24.7730   28.9770 C   0  0  0  0  0  0  0  0  0  0  0  0
   32.4720  -24.8330   30.5090 C   0  0  0  0  0  0  0  0  0  0  0  0
   35.1220  -25.3330   29.9310 C   0  0  0  0  0  0  0  0  0  0  0  0
   33.2910  -25.3890   31.4680 C   0  0  0  0  0  0  0  0  0  0  0  0
   34.6120  -25.6390   31.1770 C   0  0  0  0  0  0  0  0  0  0  0  0
   35.4130  -26.1950   32.1490 O   0  0  0  0  0  0  0  0  0  0  0  0
   29.3830  -24.3370   26.5200 N   0  0  0  0  0  0  0  0  0  0  0  0
   28.2990  -23.7730   25.7250 C   0  0  2  0  0  0  0  0  0  0  0  0
   27.2690  -23.1180   26.6320 C   0  0  0  0  0  0  0  0  0  0  0  0
   26.7130  -23.7650   27.5180 O   0  0  0  0  0  0  0  0  0  0  0  0
   27.6350  -24.8660   24.8870 C   0  0  0  0  0  0  0  0  0  0  0  0
   26.3920  -24.4130   24.1340 C   0  0  0  0  0  0  0  0  0  0  0  0
   25.8860  -25.5050   23.2040 C   0  0  0  0  0  0  0  0  0  0  0  0
   24.5090  -25.2780   22.7730 N   0  0  0  0  0  0  0  0  0  0  0  0
   23.4470  -25.4250   23.5590 C   0  0  0  0  0  0  0  0  0  0  0  0
   23.5990  -25.7830   24.8280 N   0  0  0  0  0  0  0  0  0  0  0  0
   22.2300  -25.2050   23.0820 N   0  0  0  0  0  0  0  0  0  0  0  0
   23.6080  -21.1100   27.1170 N   0  0  0  0  0  0  0  0  0  0  0  0
   22.2960  -20.8970   26.5210 C   0  0  2  0  0  0  0  0  0  0  0  0
   21.4370  -20.0850   27.4740 C   0  0  0  0  0  0  0  0  0  0  0  0
   21.2660  -20.4500   28.6390 O   0  0  0  0  0  0  0  0  0  0  0  0
   21.6030  -22.2210   26.2110 C   0  0  0  0  0  0  0  0  0  0  0  0
   20.4120  -22.0650   25.2770 C   0  0  0  0  0  0  0  0  0  0  0  0
   19.3470  -23.5140   25.2310 S   0  0  0  0  0  0  0  0  0  0  0  0
   18.2630  -23.1640   26.6110 C   0  0  0  0  0  0  0  0  0  0  0  0
   29.1230  -20.6800   22.0670 N   0  0  0  0  0  0  0  0  0  0  0  0
   30.0780  -21.7220   22.4050 C   0  0  2  0  0  0  0  0  0  0  0  0
   31.3970  -21.0640   22.7800 C   0  0  0  0  0  0  0  0  0  0  0  0
   31.7520  -20.0190   22.2370 O   0  0  0  0  0  0  0  0  0  0  0  0
   30.2680  -22.6590   21.2160 C   0  0  0  0  0  0  0  0  0  0  0  0
   29.9700  -24.1180   21.5190 C   0  0  0  0  0  0  0  0  0  0  0  0
   29.8900  -24.9300   20.2370 C   0  0  0  0  0  0  0  0  0  0  0  0
   28.7420  -25.8370   20.2300 N   0  0  0  0  0  0  0  0  0  0  0  0
   28.8070  -27.1660   20.3000 C   0  0  0  0  0  0  0  0  0  0  0  0
   29.9730  -27.7980   20.3760 N   0  0  0  0  0  0  0  0  0  0  0  0
   27.6870  -27.8740   20.2850 N   0  0  0  0  0  0  0  0  0  0  0  0
  2  1  1  6
  3  2  1  0
  4  3  2  0
  5  2  1  0
  6  5  1  0
  7  6  2  0
  8  6  1  0
  9  7  1  0
 10  8  2  0
 11 10  1  0
 11  9  2  0
 12 11  1  0
 13  3  1  0
 14 13  1  0
 15 14  1  0
 16 15  2  0
 14 17  1  1
 18 17  1  0
 19 18  2  0
 20 18  1  0
 21 19  1  0
 22 21  1  0
 22 20  2  0
 23 20  1  0
 24 22  1  0
 25 23  2  0
 26 25  1  0
 26 24  2  0
 27 15  1  0
 28 27  1  0
 29 28  1  0
 30 29  2  0
 28 31  1  6
 32 31  1  0
 33 32  1  0
 34 33  2  0
 35 33  1  0
 36 29  1  0
 37 36  1  0
 38 37  1  0
 39 38  2  0
 37 40  1  1
 41 40  1  0
 42 41  1  0
 43 42  1  0
 44 38  1  0
 45 44  1  0
 46 45  1  0
 47 46  2  0
 45 48  1  1
 49 48  1  0
 50 49  1  0
 51 50  2  0
 52 50  1  0
 53 46  1  0
 54 53  1  0
 55 54  1  0
 56 55  2  0
 54 57  1  6
 58 57  1  0
 59 58  2  0
 60 58  1  0
 61 55  1  0
 62 61  1  0
 63 62  1  0
 64 63  2  0
 62 65  1  6
 66 65  1  0
 67 66  1  0
 68 67  1  0
 69 68  1  0
 70 63  1  0
 71 70  1  0
 72 71  1  0
 73 72  2  0
 71 74  1  1
 75 74  1  0
 76 75  2  0
 77 75  1  0
 79 78  1  6
 80 79  1  0
 81 80  2  0
 82 79  1  0
 83 82  1  0
 82 84  1  1
 85 83  1  0
 86 80  1  0
 87 86  1  0
 88 87  1  0
 89 88  2  0
 87 90  1  1
 91 90  1  0
 92 91  1  0
 93 92  2  0
 94 92  1  0
 96 95  1  1
 97 96  1  0
 98 97  2  0
 99 96  1  0
100 99  1  0
101 99  1  0
103102  1  0
104103  1  0
105104  2  0
106104  1  0
107106  1  1
108107  1  0
109108  2  0
110107  1  0
111110  1  0
112110  1  0
113108  1  0
114113  1  0
115114  1  0
116115  2  0
114117  1  1
118117  1  0
119118  2  0
120118  1  0
121119  1  0
122120  2  0
123122  1  0
123121  2  0
124123  1  0
125115  1  0
126125  1  0
127126  1  0
128127  2  0
126129  1  1
130129  1  0
131130  1  0
132131  1  0
133132  1  0
134133  1  0
135133  2  0
137136  1  1
138137  1  0
139138  2  0
140137  1  0
141140  1  0
142141  1  0
143142  1  0
145144  1  6
146145  1  0
147146  2  0
148145  1  0
149148  1  0
150149  1  0
151150  1  0
152151  1  0
153152  1  0
154152  2  0
M  END
$$$$
