
     RDKit          3D

156156  0  0  0  0  0  0  0  0999 V2000
  473.3240  704.1610  485.0860 N   0  0  0  0  0  0  0  0  0  0  0  0
  474.3070  704.9930  485.7760 C   0  0  2  0  0  0  0  0  0  0  0  0
  475.5130  704.1260  486.1000 C   0  0  0  0  0  0  0  0  0  0  0  0
  475.4890  703.3470  487.0540 O   0  0  0  0  0  0  0  0  0  0  0  0
  473.7220  705.5960  487.0450 C   0  0  0  0  0  0  0  0  0  0  0  0
  474.9400  706.4850  488.0310 S   0  0  0  0  0  0  0  0  0  0  0  0
  476.5870  704.3010  485.3320 N   0  0  0  0  0  0  0  0  0  0  0  0
  477.7570  703.4480  485.4920 C   0  0  2  0  0  0  0  0  0  0  0  0
  478.7130  703.9360  486.5650 C   0  0  0  0  0  0  0  0  0  0  0  0
  479.5100  703.1410  487.0730 O   0  0  0  0  0  0  0  0  0  0  0  0
  478.4930  703.3190  484.1650 C   0  0  0  0  0  0  0  0  0  0  0  0
  479.0290  704.6160  483.6070 C   0  0  0  0  0  0  0  0  0  0  0  0
  478.2320  705.4340  482.8270 C   0  0  0  0  0  0  0  0  0  0  0  0
  480.3300  705.0180  483.8550 C   0  0  0  0  0  0  0  0  0  0  0  0
  478.7140  706.6150  482.3050 C   0  0  0  0  0  0  0  0  0  0  0  0
  480.8190  706.1970  483.3360 C   0  0  0  0  0  0  0  0  0  0  0  0
  480.0100  706.9890  482.5580 C   0  0  0  0  0  0  0  0  0  0  0  0
  480.5020  708.1700  482.0530 O   0  0  0  0  0  0  0  0  0  0  0  0
  478.6620  705.2160  486.9150 N   0  0  0  0  0  0  0  0  0  0  0  0
  479.4200  705.7420  488.0400 C   0  0  2  0  0  0  0  0  0  0  0  0
  478.4910  706.6380  488.8360 C   0  0  0  0  0  0  0  0  0  0  0  0
  477.8280  707.5090  488.2670 O   0  0  0  0  0  0  0  0  0  0  0  0
  480.6580  706.5120  487.5860 C   0  0  0  0  0  0  0  0  0  0  0  0
  481.5310  706.9520  488.7160 C   0  0  0  0  0  0  0  0  0  0  0  0
  482.4720  707.9500  488.5890 N   0  0  0  0  0  0  0  0  0  0  0  0
  481.6210  706.5100  489.9910 C   0  0  0  0  0  0  0  0  0  0  0  0
  483.0950  708.1140  489.7430 C   0  0  0  0  0  0  0  0  0  0  0  0
  482.5970  707.2520  490.6100 N   0  0  0  0  0  0  0  0  0  0  0  0
  473.1190  710.0000  494.2880 N   0  0  0  0  0  0  0  0  0  0  0  0
  473.1920  710.7580  493.0500 C   0  0  2  0  0  0  0  0  0  0  0  0
  474.1310  709.9980  492.1300 C   0  0  0  0  0  0  0  0  0  0  0  0
  474.8930  709.1340  492.5680 O   0  0  0  0  0  0  0  0  0  0  0  0
  473.6660  712.1950  493.2820 C   0  0  0  0  0  0  0  0  0  0  0  0
  474.9680  712.2100  493.8340 O   0  0  0  0  0  0  0  0  0  0  0  0
  474.0550  710.3110  490.8460 N   0  0  0  0  0  0  0  0  0  0  0  0
  474.8520  709.6190  489.8450 C   0  0  2  0  0  0  0  0  0  0  0  0
  476.0260  710.4910  489.4390 C   0  0  0  0  0  0  0  0  0  0  0  0
  475.8350  711.6050  488.9430 O   0  0  0  0  0  0  0  0  0  0  0  0
  474.0070  709.2820  488.6240 C   0  0  0  0  0  0  0  0  0  0  0  0
  474.8810  708.3870  487.3390 S   0  0  0  0  0  0  0  0  0  0  0  0
  477.2360  709.9990  489.6680 N   0  0  0  0  0  0  0  0  0  0  0  0
  478.3860  710.6260  489.0430 C   0  0  2  0  0  0  0  0  0  0  0  0
  478.2190  710.5800  487.5340 C   0  0  0  0  0  0  0  0  0  0  0  0
  478.1350  711.6240  486.8870 O   0  0  0  0  0  0  0  0  0  0  0  0
  479.6900  709.9510  489.4500 C   0  0  2  0  0  0  0  0  0  0  0  0
  479.8520  710.0450  490.8690 O   0  0  0  0  0  0  0  0  0  0  0  0
  480.8510  710.6550  488.7770 C   0  0  0  0  0  0  0  0  0  0  0  0
  478.1770  709.3730  486.9720 N   0  0  0  0  0  0  0  0  0  0  0  0
  478.2730  709.1870  485.5330 C   0  0  2  0  0  0  0  0  0  0  0  0
  477.2890  708.1220  485.0700 C   0  0  0  0  0  0  0  0  0  0  0  0
  477.3170  706.9950  485.5740 O   0  0  0  0  0  0  0  0  0  0  0  0
  479.7020  708.8010  485.1590 C   0  0  0  0  0  0  0  0  0  0  0  0
  480.6240  709.7980  485.5560 O   0  0  0  0  0  0  0  0  0  0  0  0
  476.4270  708.4670  484.1110 N   0  0  0  0  0  0  0  0  0  0  0  0
  475.4210  707.5360  483.6200 C   0  0  2  0  0  0  0  0  0  0  0  0
  475.5920  707.3060  482.1230 C   0  0  0  0  0  0  0  0  0  0  0  0
  476.0940  708.1620  481.3920 O   0  0  0  0  0  0  0  0  0  0  0  0
  473.9880  708.0260  483.8970 C   0  0  0  0  0  0  0  0  0  0  0  0
  473.5330  709.1760  483.0330 C   0  0  0  0  0  0  0  0  0  0  0  0
  472.1640  709.6860  483.4300 C   0  0  0  0  0  0  0  0  0  0  0  0
  471.7850  710.8930  482.5900 C   0  0  0  0  0  0  0  0  0  0  0  0
  470.4540  711.4410  482.9590 N   0  0  0  0  0  0  0  0  0  0  0  0
  475.1630  706.1270  481.6760 N   0  0  0  0  0  0  0  0  0  0  0  0
  475.3070  705.7290  480.2830 C   0  0  2  0  0  0  0  0  0  0  0  0
  473.9700  705.2160  479.7750 C   0  0  0  0  0  0  0  0  0  0  0  0
  473.0410  704.9720  480.5480 O   0  0  0  0  0  0  0  0  0  0  0  0
  476.3900  704.6640  480.1020 C   0  0  0  0  0  0  0  0  0  0  0  0
  475.2950  703.7490  474.3040 N   0  0  0  0  0  0  0  0  0  0  0  0
  476.2160  704.8680  474.3950 C   0  0  2  0  0  0  0  0  0  0  0  0
  477.0060  704.7990  475.6950 C   0  0  0  0  0  0  0  0  0  0  0  0
  476.4450  704.8820  476.7900 O   0  0  0  0  0  0  0  0  0  0  0  0
  475.4510  706.1870  474.3150 C   0  0  2  0  0  0  0  0  0  0  0  0
  474.7510  706.2580  473.0680 O   0  0  0  0  0  0  0  0  0  0  0  0
  476.4030  707.3510  474.4030 C   0  0  0  0  0  0  0  0  0  0  0  0
  478.3210  704.6570  475.5610 N   0  0  0  0  0  0  0  0  0  0  0  0
  479.2500  704.6270  476.6830 C   0  0  2  0  0  0  0  0  0  0  0  0
  480.3200  705.6650  476.3870 C   0  0  0  0  0  0  0  0  0  0  0  0
  481.0840  705.5150  475.4270 O   0  0  0  0  0  0  0  0  0  0  0  0
  479.8730  703.2420  476.8890 C   0  0  0  0  0  0  0  0  0  0  0  0
  480.9620  703.3070  477.9420 C   0  0  0  0  0  0  0  0  0  0  0  0
  478.8030  702.2370  477.2780 C   0  0  0  0  0  0  0  0  0  0  0  0
  480.3800  706.7060  477.2040 N   0  0  0  0  0  0  0  0  0  0  0  0
  481.1640  707.8690  476.8280 C   0  0  0  0  0  0  0  0  0  0  0  0
  480.5040  708.5270  475.6350 C   0  0  0  0  0  0  0  0  0  0  0  0
  479.3190  708.3050  475.3600 O   0  0  0  0  0  0  0  0  0  0  0  0
  481.2550  709.3490  474.9020 N   0  0  0  0  0  0  0  0  0  0  0  0
  480.7490  709.8770  473.6390 C   0  0  2  0  0  0  0  0  0  0  0  0
  480.4010  708.7410  472.6860 C   0  0  0  0  0  0  0  0  0  0  0  0
  479.5660  708.8930  471.7890 O   0  0  0  0  0  0  0  0  0  0  0  0
  481.7840  710.8030  473.0000 C   0  0  0  0  0  0  0  0  0  0  0  0
  482.0310  711.9330  473.8110 O   0  0  0  0  0  0  0  0  0  0  0  0
  481.0370  707.5910  472.8840 N   0  0  0  0  0  0  0  0  0  0  0  0
  480.8970  706.4500  471.9960 C   0  0  2  0  0  0  0  0  0  0  0  0
  479.6180  705.6770  472.2880 C   0  0  0  0  0  0  0  0  0  0  0  0
  479.1050  705.6740  473.4100 O   0  0  0  0  0  0  0  0  0  0  0  0
  482.0960  705.5310  472.1710 C   0  0  0  0  0  0  0  0  0  0  0  0
  483.4070  706.1650  471.7910 C   0  0  0  0  0  0  0  0  0  0  0  0
  484.5630  705.2920  472.2390 C   0  0  0  0  0  0  0  0  0  0  0  0
  484.5590  705.1820  473.7550 C   0  0  0  0  0  0  0  0  0  0  0  0
  484.7300  706.5180  474.3890 N   0  0  0  0  0  0  0  0  0  0  0  0
  479.1200  704.9950  471.2630 N   0  0  0  0  0  0  0  0  0  0  0  0
  477.9940  704.0870  471.3870 C   0  0  2  0  0  0  0  0  0  0  0  0
  478.4370  702.7030  470.9330 C   0  0  0  0  0  0  0  0  0  0  0  0
  479.4510  702.5470  470.2470 O   0  0  0  0  0  0  0  0  0  0  0  0
  476.7870  704.5820  470.5820 C   0  0  0  0  0  0  0  0  0  0  0  0
  476.3040  705.8050  471.1110 O   0  0  0  0  0  0  0  0  0  0  0  0
  465.4010  705.3230  489.7950 N   0  0  0  0  0  0  0  0  0  0  0  0
  466.2880  704.2560  489.3580 C   0  0  2  0  0  0  0  0  0  0  0  0
  466.0880  702.9530  490.1090 C   0  0  0  0  0  0  0  0  0  0  0  0
  465.2390  702.8220  490.9920 O   0  0  0  0  0  0  0  0  0  0  0  0
  467.7400  704.7010  489.4780 C   0  0  0  0  0  0  0  0  0  0  0  0
  467.9880  705.7300  488.4980 C   0  0  0  0  0  0  0  0  0  0  0  0
  467.1170  706.1560  487.5560 C   0  0  0  0  0  0  0  0  0  0  0  0
  469.1750  706.4840  488.3210 C   0  0  0  0  0  0  0  0  0  0  0  0
  467.6710  707.1570  486.8160 N   0  0  0  0  0  0  0  0  0  0  0  0
  468.9460  707.3710  487.2580 C   0  0  0  0  0  0  0  0  0  0  0  0
  470.4110  706.4980  488.9540 C   0  0  0  0  0  0  0  0  0  0  0  0
  469.9060  708.2590  486.8120 C   0  0  0  0  0  0  0  0  0  0  0  0
  471.3540  707.3820  488.5200 C   0  0  0  0  0  0  0  0  0  0  0  0
  471.1040  708.2490  487.4540 C   0  0  0  0  0  0  0  0  0  0  0  0
  483.1770  702.7840  484.3530 N   0  0  0  0  0  0  0  0  0  0  0  0
  483.2480  702.9800  482.9110 C   0  0  2  0  0  0  0  0  0  0  0  0
  484.2840  702.0720  482.2730 C   0  0  0  0  0  0  0  0  0  0  0  0
  484.0480  701.4900  481.2100 O   0  0  0  0  0  0  0  0  0  0  0  0
  483.5630  704.4440  482.6160 C   0  0  0  0  0  0  0  0  0  0  0  0
  483.5890  704.8060  481.1510 C   0  0  0  0  0  0  0  0  0  0  0  0
  483.7950  706.2910  480.9440 C   0  0  0  0  0  0  0  0  0  0  0  0
  483.9260  707.0130  481.9540 O   0  0  0  0  0  0  0  0  0  0  0  0
  483.8250  706.7370  479.7790 O   0  0  0  0  0  0  0  0  0  0  0  0
  479.2540  704.6040  465.3740 N   0  0  0  0  0  0  0  0  0  0  0  0
  479.4920  706.0380  465.3600 C   0  0  2  0  0  0  0  0  0  0  0  0
  478.1720  706.7290  465.0800 C   0  0  0  0  0  0  0  0  0  0  0  0
  477.5710  706.5270  464.0200 O   0  0  0  0  0  0  0  0  0  0  0  0
  480.5310  706.4060  464.3070 C   0  0  0  0  0  0  0  0  0  0  0  0
  481.9040  705.8390  464.5730 C   0  0  0  0  0  0  0  0  0  0  0  0
  482.4620  706.2860  465.9050 C   0  0  0  0  0  0  0  0  0  0  0  0
  482.2590  707.4610  466.2780 O   0  0  0  0  0  0  0  0  0  0  0  0
  483.1040  705.4580  466.5810 O   0  0  0  0  0  0  0  0  0  0  0  0
  477.7200  707.5370  466.0270 N   0  0  0  0  0  0  0  0  0  0  0  0
  476.5680  708.3700  465.7500 C   0  0  2  0  0  0  0  0  0  0  0  0
  477.0270  709.6310  465.0330 C   0  0  0  0  0  0  0  0  0  0  0  0
  477.9920  710.2770  465.4450 O   0  0  0  0  0  0  0  0  0  0  0  0
  475.8360  708.7520  467.0300 C   0  0  0  0  0  0  0  0  0  0  0  0
  474.5500  709.4230  466.6810 C   0  0  0  0  0  0  0  0  0  0  0  0
  473.4120  708.6700  466.4560 C   0  0  0  0  0  0  0  0  0  0  0  0
  474.4930  710.7870  466.4530 C   0  0  0  0  0  0  0  0  0  0  0  0
  472.2360  709.2590  466.1040 C   0  0  0  0  0  0  0  0  0  0  0  0
  473.3300  711.3820  466.0830 C   0  0  0  0  0  0  0  0  0  0  0  0
  472.1990  710.6130  465.9110 C   0  0  0  0  0  0  0  0  0  0  0  0
  471.0180  711.1870  465.5300 O   0  0  0  0  0  0  0  0  0  0  0  0
  476.3350  709.9870  463.9520 N   0  0  0  0  0  0  0  0  0  0  0  0
  476.6330  711.2570  463.3000 C   0  0  2  0  0  0  0  0  0  0  0  0
  475.4010  712.1510  463.2680 C   0  0  0  0  0  0  0  0  0  0  0  0
  475.2630  713.0650  464.0810 O   0  0  0  0  0  0  0  0  0  0  0  0
  477.1430  711.0010  461.8840 C   0  0  0  0  0  0  0  0  0  0  0  0
  476.1810  710.2770  461.1340 O   0  0  0  0  0  0  0  0  0  0  0  0
  2  1  1  1
  3  2  1  0
  4  3  2  0
  5  2  1  0
  6  5  1  0
  7  3  1  0
  8  7  1  0
  9  8  1  0
 10  9  2  0
  8 11  1  6
 12 11  1  0
 13 12  2  0
 14 12  1  0
 15 13  1  0
 16 14  2  0
 17 15  2  0
 17 16  1  0
 18 17  1  0
 19  9  1  0
 20 19  1  0
 21 20  1  0
 22 21  2  0
 20 23  1  6
 24 23  1  0
 25 24  1  0
 26 24  2  0
 27 25  2  0
 28 27  1  0
 28 26  1  0
 30 29  1  1
 31 30  1  0
 32 31  2  0
 33 30  1  0
 34 33  1  0
 35 31  1  0
 36 35  1  0
 37 36  1  0
 38 37  2  0
 36 39  1  6
 40 39  1  0
 40  6  1  0
 41 37  1  0
 42 41  1  1
 43 42  1  0
 44 43  2  0
 45 42  1  0
 46 45  1  0
 45 47  1  6
 48 43  1  0
 49 48  1  0
 50 49  1  0
 51 50  2  0
 49 52  1  1
 53 52  1  0
 54 50  1  0
 55 54  1  0
 56 55  1  0
 57 56  2  0
 55 58  1  6
 59 58  1  0
 60 59  1  0
 61 60  1  0
 62 61  1  0
 63 56  1  0
 64 63  1  0
 65 64  1  0
 66 65  2  0
 64 67  1  1
 69 68  1  1
 70 69  1  0
 71 70  2  0
 72 69  1  0
 73 72  1  0
 72 74  1  6
 75 70  1  0
 76 75  1  6
 77 76  1  0
 78 77  2  0
 79 76  1  0
 80 79  1  0
 81 79  1  0
 82 77  1  0
 83 82  1  0
 84 83  1  0
 85 84  2  0
 86 84  1  0
 87 86  1  0
 88 87  1  0
 89 88  2  0
 87 90  1  6
 91 90  1  0
 92 88  1  0
 93 92  1  0
 94 93  1  0
 95 94  2  0
 93 96  1  1
 97 96  1  0
 98 97  1  0
 99 98  1  0
100 99  1  0
101 94  1  0
102101  1  0
103102  1  0
104103  2  0
102105  1  6
106105  1  0
108107  1  1
109108  1  0
110109  2  0
111108  1  0
112111  1  0
113112  2  0
114112  1  0
115113  1  0
116115  1  0
116114  2  0
117114  1  0
118116  1  0
119117  2  0
120119  1  0
120118  2  0
122121  1  1
123122  1  0
124123  2  0
125122  1  0
126125  1  0
127126  1  0
128127  2  0
129127  1  0
131130  1  6
132131  1  0
133132  2  0
134131  1  0
135134  1  0
136135  1  0
137136  2  0
138136  1  0
139132  1  0
140139  1  0
141140  1  0
142141  2  0
140143  1  1
144143  1  0
145144  2  0
146144  1  0
147145  1  0
148146  2  0
149148  1  0
149147  2  0
150149  1  0
151141  1  0
152151  1  0
153152  1  0
154153  2  0
152155  1  6
156155  1  0
M  END
$$$$
