
     RDKit          3D

229227  0  0  0  0  0  0  0  0999 V2000
   42.9880   19.4470   74.2610 N   0  0  0  0  0  0  0  0  0  0  0  0
   43.2300   20.3470   73.1190 C   0  0  2  0  0  0  0  0  0  0  0  0
   44.0630   19.6230   72.0740 C   0  0  0  0  0  0  0  0  0  0  0  0
   43.9910   19.9730   70.9060 O   0  0  0  0  0  0  0  0  0  0  0  0
   43.8310   21.6230   73.6110 C   0  0  0  0  0  0  0  0  0  0  0  0
   45.3340   21.6300   73.6680 C   0  0  0  0  0  0  0  0  0  0  0  0
   46.0030   21.7540   74.8510 N   0  0  0  0  0  0  0  0  0  0  0  0
   46.2960   21.5120   72.6940 C   0  0  0  0  0  0  0  0  0  0  0  0
   47.3090   21.6440   74.6210 C   0  0  0  0  0  0  0  0  0  0  0  0
   47.5090   21.5930   73.3240 N   0  0  0  0  0  0  0  0  0  0  0  0
   42.0030   18.6960   68.6050 N   0  0  0  0  0  0  0  0  0  0  0  0
   41.3730   19.7160   67.7420 C   0  0  2  0  0  0  0  0  0  0  0  0
   40.7310   19.1100   66.5000 C   0  0  0  0  0  0  0  0  0  0  0  0
   39.4610   19.0390   66.4050 O   0  0  0  0  0  0  0  0  0  0  0  0
   42.4010   20.7670   67.2920 C   0  0  0  0  0  0  0  0  0  0  0  0
   41.8190   21.9710   66.5470 C   0  0  0  0  0  0  0  0  0  0  0  0
   40.8680   21.8450   65.5370 C   0  0  0  0  0  0  0  0  0  0  0  0
   42.2490   23.2230   66.8470 C   0  0  0  0  0  0  0  0  0  0  0  0
   40.3690   22.9400   64.8890 C   0  0  0  0  0  0  0  0  0  0  0  0
   41.7570   24.3160   66.1980 C   0  0  0  0  0  0  0  0  0  0  0  0
   40.8160   24.1670   65.2250 C   0  0  0  0  0  0  0  0  0  0  0  0
   40.3130   25.2500   64.5720 O   0  0  0  0  0  0  0  0  0  0  0  0
   35.1930   21.0270   78.6130 N   0  0  0  0  0  0  0  0  0  0  0  0
   36.2120   21.5510   77.6390 C   0  0  2  0  0  0  0  0  0  0  0  0
   35.4370   22.1620   76.4460 C   0  0  0  0  0  0  0  0  0  0  0  0
   34.5650   21.5320   75.8660 O   0  0  0  0  0  0  0  0  0  0  0  0
   37.1320   20.4850   77.1080 C   0  0  0  0  0  0  0  0  0  0  0  0
   38.1120   20.9890   76.0120 C   0  0  0  0  0  0  0  0  0  0  0  0
   39.1310   21.8630   76.3260 C   0  0  0  0  0  0  0  0  0  0  0  0
   37.8880   20.6840   74.6840 C   0  0  0  0  0  0  0  0  0  0  0  0
   39.9840   22.3580   75.3020 C   0  0  0  0  0  0  0  0  0  0  0  0
   38.6760   21.2070   73.6760 C   0  0  0  0  0  0  0  0  0  0  0  0
   39.7580   21.9710   74.0010 C   0  0  0  0  0  0  0  0  0  0  0  0
   40.5170   22.4860   72.9270 O   0  0  0  0  0  0  0  0  0  0  0  0
   35.7850   23.3920   76.1270 N   0  0  0  0  0  0  0  0  0  0  0  0
   35.2890   24.0430   74.8640 C   0  0  2  0  0  0  0  0  0  0  0  0
   36.4470   24.4640   73.9220 C   0  0  0  0  0  0  0  0  0  0  0  0
   37.4560   25.0130   74.3620 O   0  0  0  0  0  0  0  0  0  0  0  0
   34.4640   25.2500   75.2920 C   0  0  0  0  0  0  0  0  0  0  0  0
   33.1900   24.8140   76.0510 C   0  0  0  0  0  0  0  0  0  0  0  0
   32.7370   25.9300   76.9760 C   0  0  0  0  0  0  0  0  0  0  0  0
   31.6980   25.3780   77.9640 C   0  0  0  0  0  0  0  0  0  0  0  0
   31.3350   26.5240   78.7990 N   0  0  0  0  0  0  0  0  0  0  0  0
   36.2990   24.2700   72.6150 N   0  0  0  0  0  0  0  0  0  0  0  0
   37.3840   24.7010   71.6380 C   0  0  2  0  0  0  0  0  0  0  0  0
   37.6700   26.1990   71.7000 C   0  0  0  0  0  0  0  0  0  0  0  0
   38.8020   26.6880   71.3290 O   0  0  0  0  0  0  0  0  0  0  0  0
   37.0060   24.3060   70.1990 C   0  0  0  0  0  0  0  0  0  0  0  0
   37.3080   22.8630   69.8730 C   0  0  0  0  0  0  0  0  0  0  0  0
   36.8000   22.4180   68.1790 S   0  0  0  0  0  0  0  0  0  0  0  0
   38.1570   22.9470   67.1620 C   0  0  0  0  0  0  0  0  0  0  0  0
   37.8960   27.9660   74.5000 N   0  0  0  0  0  0  0  0  0  0  0  0
   38.4420   28.2610   75.8580 C   0  0  2  0  0  0  0  0  0  0  0  0
   39.6300   27.3590   76.0970 C   0  0  0  0  0  0  0  0  0  0  0  0
   39.7400   26.2780   75.4660 O   0  0  0  0  0  0  0  0  0  0  0  0
   37.3790   27.9970   76.9510 C   0  0  0  0  0  0  0  0  0  0  0  0
   35.9640   28.5300   76.5810 C   0  0  0  0  0  0  0  0  0  0  0  0
   35.9430   30.0680   76.5710 C   0  0  0  0  0  0  0  0  0  0  0  0
   36.8700   30.6490   77.2020 O   0  0  0  0  0  0  0  0  0  0  0  0
   35.0190   30.6900   75.9580 O   0  0  0  0  0  0  0  0  0  0  0  0
   40.4900   27.7970   77.0020 N   0  0  0  0  0  0  0  0  0  0  0  0
   41.7670   27.0970   77.3160 C   0  0  2  0  0  0  0  0  0  0  0  0
   41.6640   26.0980   78.4760 C   0  0  0  0  0  0  0  0  0  0  0  0
   42.5320   25.1920   78.5770 O   0  0  0  0  0  0  0  0  0  0  0  0
   42.8770   28.1160   77.6280 C   0  0  0  0  0  0  0  0  0  0  0  0
   42.5180   28.7960   78.8350 O   0  0  0  0  0  0  0  0  0  0  0  0
   40.5650   26.1990   79.2680 N   0  0  0  0  0  0  0  0  0  0  0  0
   40.3700   25.4440   80.5230 C   0  0  0  0  0  0  0  0  0  0  0  0
   39.8040   24.0600   80.3380 C   0  0  0  0  0  0  0  0  0  0  0  0
   39.5640   23.5970   79.1980 O   0  0  0  0  0  0  0  0  0  0  0  0
   41.3410   21.3790   80.3570 N   0  0  0  0  0  0  0  0  0  0  0  0
   42.1040   20.8240   79.2720 C   0  0  2  0  0  0  0  0  0  0  0  0
   42.6230   19.4520   79.7220 C   0  0  0  0  0  0  0  0  0  0  0  0
   43.8230   19.3260   80.1310 O   0  0  0  0  0  0  0  0  0  0  0  0
   43.2740   21.7400   78.9050 C   0  0  0  0  0  0  0  0  0  0  0  0
   43.9810   21.3190   77.6430 C   0  0  0  0  0  0  0  0  0  0  0  0
   43.5410   20.3980   76.8830 O   0  0  0  0  0  0  0  0  0  0  0  0
   45.0220   21.9580   77.4120 O   0  0  0  0  0  0  0  0  0  0  0  0
   60.7080   28.5680   70.7400 N   0  0  0  0  0  0  0  0  0  0  0  0
   59.3750   28.8830   70.1470 C   0  0  2  0  0  0  0  0  0  0  0  0
   59.1870   28.3190   68.7860 C   0  0  0  0  0  0  0  0  0  0  0  0
   58.1690   27.6860   68.5420 O   0  0  0  0  0  0  0  0  0  0  0  0
   59.0780   30.3590   70.1800 C   0  0  0  0  0  0  0  0  0  0  0  0
   57.6700   30.7480   69.7600 C   0  0  0  0  0  0  0  0  0  0  0  0
   56.6950   30.3640   70.8590 C   0  0  0  0  0  0  0  0  0  0  0  0
   57.7110   32.2690   69.5240 C   0  0  0  0  0  0  0  0  0  0  0  0
   60.1410   28.4480   67.8970 N   0  0  0  0  0  0  0  0  0  0  0  0
   60.0400   27.8340   66.5550 C   0  0  2  0  0  0  0  0  0  0  0  0
   61.2440   26.9340   66.3030 C   0  0  0  0  0  0  0  0  0  0  0  0
   62.4110   27.3900   66.3400 O   0  0  0  0  0  0  0  0  0  0  0  0
   59.9230   28.9360   65.5170 C   0  0  0  0  0  0  0  0  0  0  0  0
   58.6520   29.7740   65.7940 C   0  0  0  0  0  0  0  0  0  0  0  0
   58.4000   30.7940   64.7470 C   0  0  0  0  0  0  0  0  0  0  0  0
   57.3420   31.7100   65.1510 N   0  0  0  0  0  0  0  0  0  0  0  0
   57.2120   32.9340   64.6620 C   0  0  0  0  0  0  0  0  0  0  0  0
   58.1080   33.3800   63.7290 N   0  0  0  0  0  0  0  0  0  0  0  0
   56.2980   33.7060   65.1240 N   0  0  0  0  0  0  0  0  0  0  0  0
   43.7270   36.3310   81.0130 N   0  0  0  0  0  0  0  0  0  0  0  0
   43.2050   34.9460   81.0170 C   0  0  2  0  0  0  0  0  0  0  0  0
   42.7610   34.6620   82.4420 C   0  0  0  0  0  0  0  0  0  0  0  0
   43.3220   35.2380   83.3890 O   0  0  0  0  0  0  0  0  0  0  0  0
   44.3110   33.9450   80.5570 C   0  0  0  0  0  0  0  0  0  0  0  0
   45.0460   34.3620   79.3100 C   0  0  0  0  0  0  0  0  0  0  0  0
   44.7550   33.8470   78.0580 N   0  0  0  0  0  0  0  0  0  0  0  0
   46.0340   35.2780   79.1130 C   0  0  0  0  0  0  0  0  0  0  0  0
   45.5380   34.4160   77.1510 C   0  0  0  0  0  0  0  0  0  0  0  0
   46.3290   35.2830   77.7650 N   0  0  0  0  0  0  0  0  0  0  0  0
   60.8430   25.4300   80.4460 N   0  0  0  0  0  0  0  0  0  0  0  0
   59.3970   25.3590   80.2820 C   0  0  2  0  0  0  0  0  0  0  0  0
   59.0790   24.2230   79.2680 C   0  0  0  0  0  0  0  0  0  0  0  0
   59.9160   23.7800   78.5480 O   0  0  0  0  0  0  0  0  0  0  0  0
   58.9070   26.7050   79.6790 C   0  0  0  0  0  0  0  0  0  0  0  0
   57.3760   26.9860   79.8310 C   0  0  0  0  0  0  0  0  0  0  0  0
   56.7760   26.2870   80.6660 O   0  0  0  0  0  0  0  0  0  0  0  0
   56.7990   28.0070   79.0890 O   0  0  0  0  0  0  0  0  0  0  0  0
   57.8310   23.8570   79.2330 N   0  0  0  0  0  0  0  0  0  0  0  0
   57.2410   23.1150   78.2030 C   0  0  2  0  0  0  0  0  0  0  0  0
   57.1770   24.0470   76.9560 C   0  0  0  0  0  0  0  0  0  0  0  0
   57.2040   25.2960   77.1160 O   0  0  0  0  0  0  0  0  0  0  0  0
   55.8750   22.7270   78.5620 C   0  0  0  0  0  0  0  0  0  0  0  0
   57.1480   23.4050   75.7950 N   0  0  0  0  0  0  0  0  0  0  0  0
   56.9440   24.2110   74.5710 C   0  0  2  0  0  0  0  0  0  0  0  0
   56.0100   23.4580   73.6600 C   0  0  0  0  0  0  0  0  0  0  0  0
   55.3550   22.4710   74.0590 O   0  0  0  0  0  0  0  0  0  0  0  0
   58.3040   24.5540   73.9980 C   0  0  0  0  0  0  0  0  0  0  0  0
   58.2480   25.8650   72.6950 S   0  0  0  0  0  0  0  0  0  0  0  0
   55.9180   23.8750   72.3820 N   0  0  0  0  0  0  0  0  0  0  0  0
   55.0780   23.1560   71.4730 C   0  0  2  0  0  0  0  0  0  0  0  0
   55.4870   21.6880   71.3230 C   0  0  0  0  0  0  0  0  0  0  0  0
   56.6470   21.3770   71.2320 O   0  0  0  0  0  0  0  0  0  0  0  0
   55.1650   23.8530   70.0860 C   0  0  0  0  0  0  0  0  0  0  0  0
   54.8060   25.3180   70.1050 C   0  0  0  0  0  0  0  0  0  0  0  0
   54.8280   25.9490   68.6540 C   0  0  0  0  0  0  0  0  0  0  0  0
   54.9050   27.4910   68.7320 C   0  0  0  0  0  0  0  0  0  0  0  0
   55.2360   27.9890   67.3850 N   0  0  0  0  0  0  0  0  0  0  0  0
   54.5050   20.7910   71.2870 N   0  0  0  0  0  0  0  0  0  0  0  0
   54.7110   19.3970   71.1950 C   0  0  0  0  0  0  0  0  0  0  0  0
   54.8170   18.6930   72.5470 C   0  0  0  0  0  0  0  0  0  0  0  0
   54.8110   17.4710   72.5870 O   0  0  0  0  0  0  0  0  0  0  0  0
   52.5830   19.3820   74.9940 N   0  0  0  0  0  0  0  0  0  0  0  0
   51.1580   19.2940   75.4720 C   0  0  2  0  0  0  0  0  0  0  0  0
   50.7250   17.8810   75.7980 C   0  0  0  0  0  0  0  0  0  0  0  0
   50.9890   16.9450   75.0360 O   0  0  0  0  0  0  0  0  0  0  0  0
   50.1810   19.8250   74.4340 C   0  0  0  0  0  0  0  0  0  0  0  0
   50.5430   19.2830   80.7920 N   0  0  0  0  0  0  0  0  0  0  0  0
   51.0190   20.4270   80.0410 C   0  0  2  0  0  0  0  0  0  0  0  0
   49.8400   20.8770   79.1120 C   0  0  0  0  0  0  0  0  0  0  0  0
   49.3430   20.1210   78.3520 O   0  0  0  0  0  0  0  0  0  0  0  0
   52.2140   20.0360   79.1890 C   0  0  2  0  0  0  0  0  0  0  0  0
   53.3130   19.6130   80.0200 O   0  0  0  0  0  0  0  0  0  0  0  0
   52.6560   21.1820   78.2490 C   0  0  0  0  0  0  0  0  0  0  0  0
   49.5030   22.1390   79.2040 N   0  0  0  0  0  0  0  0  0  0  0  0
   48.2640   22.6560   78.5820 C   0  0  2  0  0  0  0  0  0  0  0  0
   48.5040   23.8680   77.6800 C   0  0  0  0  0  0  0  0  0  0  0  0
   48.1450   23.8180   76.5150 O   0  0  0  0  0  0  0  0  0  0  0  0
   47.2430   23.0910   79.6500 C   0  0  0  0  0  0  0  0  0  0  0  0
   46.0200   23.5100   79.0300 O   0  0  0  0  0  0  0  0  0  0  0  0
   49.1460   24.8790   78.1880 N   0  0  0  0  0  0  0  0  0  0  0  0
   49.2120   26.1590   77.4480 C   0  0  2  0  0  0  0  0  0  0  0  0
   50.2650   27.0440   78.0360 C   0  0  0  0  0  0  0  0  0  0  0  0
   50.7040   26.8970   79.1660 O   0  0  0  0  0  0  0  0  0  0  0  0
   47.7620   26.8910   77.5320 C   0  0  0  0  0  0  0  0  0  0  0  0
   47.8260   28.2720   76.9970 C   0  0  0  0  0  0  0  0  0  0  0  0
   47.9560   28.6700   75.6240 C   0  0  0  0  0  0  0  0  0  0  0  0
   47.9670   29.4900   77.7710 C   0  0  0  0  0  0  0  0  0  0  0  0
   48.1590   30.0800   75.5510 N   0  0  0  0  0  0  0  0  0  0  0  0
   48.1520   30.5900   76.8340 C   0  0  0  0  0  0  0  0  0  0  0  0
   47.9950   29.7600   79.1300 C   0  0  0  0  0  0  0  0  0  0  0  0
   48.3020   31.9200   77.2690 C   0  0  0  0  0  0  0  0  0  0  0  0
   48.1890   31.1120   79.5600 C   0  0  0  0  0  0  0  0  0  0  0  0
   48.3250   32.1540   78.6400 C   0  0  0  0  0  0  0  0  0  0  0  0
   50.7160   28.0440   77.2680 N   0  0  0  0  0  0  0  0  0  0  0  0
   51.5070   29.1010   77.8100 C   0  0  0  0  0  0  0  0  0  0  0  0
   51.6180   30.2730   76.7700 C   0  0  0  0  0  0  0  0  0  0  0  0
   51.2610   30.1200   75.5760 O   0  0  0  0  0  0  0  0  0  0  0  0
   52.1270   31.3990   77.2120 N   0  0  0  0  0  0  0  0  0  0  0  0
   52.4120   32.5350   76.2820 C   0  0  2  0  0  0  0  0  0  0  0  0
   53.7920   32.3870   75.7730 C   0  0  0  0  0  0  0  0  0  0  0  0
   54.7380   32.7880   76.4220 O   0  0  0  0  0  0  0  0  0  0  0  0
   52.2640   33.9060   76.9440 C   0  0  0  0  0  0  0  0  0  0  0  0
   50.8990   34.4930   76.6900 C   0  0  0  0  0  0  0  0  0  0  0  0
   50.6420   35.8680   77.3830 C   0  0  0  0  0  0  0  0  0  0  0  0
   51.6380   36.5620   77.7890 O   0  0  0  0  0  0  0  0  0  0  0  0
   49.4070   36.1800   77.5280 O   0  0  0  0  0  0  0  0  0  0  0  0
   53.8910   31.7130   74.6360 N   0  0  0  0  0  0  0  0  0  0  0  0
   55.1890   31.3580   74.1530 C   0  0  0  0  0  0  0  0  0  0  0  0
   55.7770   30.2030   75.0210 C   0  0  0  0  0  0  0  0  0  0  0  0
   55.0440   29.3660   75.6750 O   0  0  0  0  0  0  0  0  0  0  0  0
   57.1000   30.1850   75.0390 N   0  0  0  0  0  0  0  0  0  0  0  0
   57.8530   29.1170   75.7410 C   0  0  2  0  0  0  0  0  0  0  0  0
   58.9390   29.7160   76.5950 C   0  0  0  0  0  0  0  0  0  0  0  0
   59.7970   30.3900   76.0590 O   0  0  0  0  0  0  0  0  0  0  0  0
   58.4380   28.1370   74.7220 C   0  0  0  0  0  0  0  0  0  0  0  0
   57.2520   27.3670   73.5360 S   0  0  0  0  0  0  0  0  0  0  0  0
   58.8770   29.5130   77.9180 N   0  0  0  0  0  0  0  0  0  0  0  0
   59.9840   29.8530   78.7690 C   0  0  2  0  0  0  0  0  0  0  0  0
   60.3220   31.3300   78.7890 C   0  0  0  0  0  0  0  0  0  0  0  0
   61.4180   31.6880   79.1180 O   0  0  0  0  0  0  0  0  0  0  0  0
   61.2040   29.0250   78.4200 C   0  0  0  0  0  0  0  0  0  0  0  0
   54.9330   32.0080   83.2660 N   0  0  0  0  0  0  0  0  0  0  0  0
   54.9980   30.5950   83.5900 C   0  0  2  0  0  0  0  0  0  0  0  0
   54.1340   29.7540   82.6790 C   0  0  0  0  0  0  0  0  0  0  0  0
   53.0980   30.1960   82.1780 O   0  0  0  0  0  0  0  0  0  0  0  0
   54.5210   30.5360   85.0700 C   0  0  0  0  0  0  0  0  0  0  0  0
   53.6730   31.8110   85.2570 C   0  0  0  0  0  0  0  0  0  0  0  0
   54.2820   32.8210   84.3380 C   0  0  0  0  0  0  0  0  0  0  0  0
   54.5270   28.5090   82.4760 N   0  0  0  0  0  0  0  0  0  0  0  0
   53.6250   27.6470   81.7550 C   0  0  0  0  0  0  0  0  0  0  0  0
   52.4040   27.2970   82.6000 C   0  0  0  0  0  0  0  0  0  0  0  0
   52.4910   27.2390   83.8480 O   0  0  0  0  0  0  0  0  0  0  0  0
   51.3040   26.9690   81.9390 N   0  0  0  0  0  0  0  0  0  0  0  0
   50.1290   26.5900   82.5690 C   0  0  2  0  0  0  0  0  0  0  0  0
   49.8880   25.0970   82.3310 C   0  0  0  0  0  0  0  0  0  0  0  0
   50.0930   24.5830   81.2410 O   0  0  0  0  0  0  0  0  0  0  0  0
   48.9700   27.4860   82.1240 C   0  0  0  0  0  0  0  0  0  0  0  0
   47.6990   27.1520   82.7980 C   0  0  0  0  0  0  0  0  0  0  0  0
   49.3300   28.9280   82.4040 C   0  0  0  0  0  0  0  0  0  0  0  0
   49.4120   24.4390   83.3840 N   0  0  0  0  0  0  0  0  0  0  0  0
   49.1340   23.0040   83.4550 C   0  0  2  0  0  0  0  0  0  0  0  0
   47.7690   22.7240   84.0060 C   0  0  0  0  0  0  0  0  0  0  0  0
   47.2890   23.4290   84.8720 O   0  0  0  0  0  0  0  0  0  0  0  0
   50.2390   22.3000   84.2670 C   0  0  0  0  0  0  0  0  0  0  0  0
   51.6490   22.5470   83.7400 C   0  0  0  0  0  0  0  0  0  0  0  0
   52.3170   23.7180   83.9610 C   0  0  0  0  0  0  0  0  0  0  0  0
   52.2850   21.5880   83.0260 C   0  0  0  0  0  0  0  0  0  0  0  0
   53.5620   23.9610   83.4760 C   0  0  0  0  0  0  0  0  0  0  0  0
   53.5420   21.7690   82.5220 C   0  0  0  0  0  0  0  0  0  0  0  0
   54.2010   22.9490   82.7000 C   0  0  0  0  0  0  0  0  0  0  0  0
   55.4680   23.1000   82.1600 O   0  0  0  0  0  0  0  0  0  0  0  0
  2  1  1  1
  3  2  1  0
  4  3  2  0
  5  2  1  0
  6  5  1  0
  7  6  1  0
  8  6  2  0
  9  7  2  0
 10  9  1  0
 10  8  1  0
 12 11  1  6
 13 12  1  0
 14 13  2  0
 15 12  1  0
 16 15  1  0
 17 16  2  0
 18 16  1  0
 19 17  1  0
 20 18  2  0
 21 19  2  0
 21 20  1  0
 22 21  1  0
 24 23  1  1
 25 24  1  0
 26 25  2  0
 27 24  1  0
 28 27  1  0
 29 28  2  0
 30 28  1  0
 31 29  1  0
 32 30  2  0
 33 32  1  0
 33 31  2  0
 34 33  1  0
 35 25  1  0
 36 35  1  0
 37 36  1  0
 38 37  2  0
 36 39  1  1
 40 39  1  0
 41 40  1  0
 42 41  1  0
 43 42  1  0
 44 37  1  0
 45 44  1  0
 46 45  1  0
 47 46  2  0
 45 48  1  6
 49 48  1  0
 50 49  1  0
 51 50  1  0
 53 52  1  6
 54 53  1  0
 55 54  2  0
 56 53  1  0
 57 56  1  0
 58 57  1  0
 59 58  2  0
 60 58  1  0
 61 54  1  0
 62 61  1  0
 63 62  1  0
 64 63  2  0
 62 65  1  1
 66 65  1  0
 67 63  1  0
 68 67  1  0
 69 68  1  0
 70 69  2  0
 72 71  1  1
 73 72  1  0
 74 73  2  0
 75 72  1  0
 76 75  1  0
 77 76  2  0
 78 76  1  0
 80 79  1  6
 81 80  1  0
 82 81  2  0
 83 80  1  0
 84 83  1  0
 85 84  1  0
 86 84  1  0
 87 81  1  0
 88 87  1  0
 89 88  1  0
 90 89  2  0
 88 91  1  6
 92 91  1  0
 93 92  1  0
 94 93  1  0
 95 94  1  0
 96 95  1  0
 97 95  2  0
 99 98  1  1
100 99  1  0
101100  2  0
102 99  1  0
103102  1  0
104103  1  0
105103  2  0
106104  2  0
107106  1  0
107105  1  0
109108  1  6
110109  1  0
111110  2  0
112109  1  0
113112  1  0
114113  2  0
115113  1  0
116110  1  0
117116  1  0
118117  1  0
119118  2  0
117120  1  1
121118  1  0
122121  1  0
123122  1  0
124123  2  0
122125  1  6
126125  1  0
127123  1  0
128127  1  0
129128  1  0
130129  2  0
128131  1  6
132131  1  0
133132  1  0
134133  1  0
135134  1  0
136129  1  0
137136  1  0
138137  1  0
139138  2  0
141140  1  0
142141  1  0
143142  2  0
141144  1  6
146145  1  6
147146  1  0
148147  2  0
149146  1  0
150149  1  0
149151  1  1
152147  1  0
153152  1  0
154153  1  0
155154  2  0
153156  1  1
157156  1  0
158154  1  0
159158  1  0
160159  1  0
161160  2  0
159162  1  1
163162  1  0
164163  2  0
165163  1  0
166164  1  0
167166  1  0
167165  2  0
168165  1  0
169167  1  0
170168  2  0
171170  1  0
171169  2  0
172160  1  0
173172  1  0
174173  1  0
175174  2  0
176174  1  0
177176  1  0
178177  1  0
179178  2  0
177180  1  1
181180  1  0
182181  1  0
183182  2  0
184182  1  0
185178  1  0
186185  1  0
187186  1  0
188187  2  0
189187  1  0
190189  1  0
191190  1  0
192191  2  0
190193  1  6
194126  1  0
194193  1  0
195191  1  0
196195  1  0
197196  1  0
198197  2  0
196199  1  6
201200  1  0
201202  1  6
203202  2  0
204201  1  0
205204  1  0
206205  1  0
206200  1  0
207202  1  0
208207  1  0
209208  1  0
210209  2  0
211209  1  0
212211  1  6
213212  1  0
214213  2  0
215212  1  0
216215  1  0
217215  1  0
218213  1  0
219218  1  0
220219  1  0
221220  2  0
219222  1  1
223222  1  0
224223  2  0
225223  1  0
226224  1  0
227225  2  0
228227  1  0
228226  2  0
229228  1  0
M  END
$$$$
