
     RDKit          3D

 71 67  0  0  0  0  0  0  0  0999 V2000
   47.7670  256.6810  -14.2990 N   0  0  0  0  0  0  0  0  0  0  0  0
   47.0380  257.9370  -14.1550 C   0  0  2  0  0  0  0  0  0  0  0  0
   45.9220  257.9100  -15.1980 C   0  0  0  0  0  0  0  0  0  0  0  0
   46.1810  258.1050  -16.3890 O   0  0  0  0  0  0  0  0  0  0  0  0
   47.9550  259.1360  -14.3370 C   0  0  0  0  0  0  0  0  0  0  0  0
   47.3610  260.4140  -13.7750 C   0  0  0  0  0  0  0  0  0  0  0  0
   46.1970  260.7310  -14.0200 O   0  0  0  0  0  0  0  0  0  0  0  0
   48.1550  261.1460  -13.0030 N   0  0  0  0  0  0  0  0  0  0  0  0
   43.6890  259.9440  -15.8220 N   0  0  0  0  0  0  0  0  0  0  0  0
   43.5100  261.2300  -16.4840 C   0  0  2  0  0  0  0  0  0  0  0  0
   44.5430  261.4570  -17.5820 C   0  0  0  0  0  0  0  0  0  0  0  0
   44.2470  262.1340  -18.5720 O   0  0  0  0  0  0  0  0  0  0  0  0
   43.5840  262.3610  -15.4580 C   0  0  2  0  0  0  0  0  0  0  0  0
   44.8770  262.3610  -14.8410 O   0  0  0  0  0  0  0  0  0  0  0  0
   42.5210  262.1750  -14.3880 C   0  0  0  0  0  0  0  0  0  0  0  0
   45.7490  260.9150  -17.4240 N   0  0  0  0  0  0  0  0  0  0  0  0
   46.7890  261.0440  -18.4380 C   0  0  2  0  0  0  0  0  0  0  0  0
   46.5730  259.9930  -19.5190 C   0  0  0  0  0  0  0  0  0  0  0  0
   46.4950  258.7960  -19.2220 O   0  0  0  0  0  0  0  0  0  0  0  0
   48.1710  260.8940  -17.8040 C   0  0  0  0  0  0  0  0  0  0  0  0
   49.2900  260.9220  -18.8250 C   0  0  0  0  0  0  0  0  0  0  0  0
   49.1300  261.4470  -19.9270 O   0  0  0  0  0  0  0  0  0  0  0  0
   50.4370  260.3600  -18.4610 N   0  0  0  0  0  0  0  0  0  0  0  0
   46.4800  260.4390  -20.7750 N   0  0  0  0  0  0  0  0  0  0  0  0
   46.2310  259.5140  -21.8740 C   0  0  2  0  0  0  0  0  0  0  0  0
   47.4780  258.7370  -22.2690 C   0  0  0  0  0  0  0  0  0  0  0  0
   47.3670  257.6160  -22.7770 O   0  0  0  0  0  0  0  0  0  0  0  0
   45.6800  260.2680  -23.0890 C   0  0  0  0  0  0  0  0  0  0  0  0
   46.6070  261.3690  -23.5770 C   0  0  0  0  0  0  0  0  0  0  0  0
   47.7890  261.4030  -23.2430 O   0  0  0  0  0  0  0  0  0  0  0  0
   46.0660  262.2780  -24.3810 N   0  0  0  0  0  0  0  0  0  0  0  0
   43.3660  256.1940  -23.8630 N   0  0  0  0  0  0  0  0  0  0  0  0
   42.5060  257.3680  -23.8800 C   0  0  2  0  0  0  0  0  0  0  0  0
   42.6530  258.1070  -25.2040 C   0  0  0  0  0  0  0  0  0  0  0  0
   43.7590  258.2450  -25.7360 O   0  0  0  0  0  0  0  0  0  0  0  0
   42.8490  258.3080  -22.7230 C   0  0  0  0  0  0  0  0  0  0  0  0
   42.4460  257.8210  -21.3420 C   0  0  0  0  0  0  0  0  0  0  0  0
   40.9630  258.0320  -21.0920 C   0  0  0  0  0  0  0  0  0  0  0  0
   40.4050  259.0950  -21.9200 N   0  0  0  0  0  0  0  0  0  0  0  0
   40.3670  260.3760  -21.5700 C   0  0  0  0  0  0  0  0  0  0  0  0
   40.8600  260.7610  -20.4020 N   0  0  0  0  0  0  0  0  0  0  0  0
   39.8380  261.2740  -22.3900 N   0  0  0  0  0  0  0  0  0  0  0  0
   41.6980  261.4020  -25.7640 N   0  0  0  0  0  0  0  0  0  0  0  0
   42.0880  262.7790  -25.5620 C   0  0  0  0  0  0  0  0  0  0  0  0
   41.1790  263.7350  -26.3140 C   0  0  0  0  0  0  0  0  0  0  0  0
   40.0010  263.4580  -26.5710 O   0  0  0  0  0  0  0  0  0  0  0  0
   41.7440  264.8800  -26.6680 N   0  0  0  0  0  0  0  0  0  0  0  0
   41.0300  265.9000  -27.4080 C   0  0  0  0  0  0  0  0  0  0  0  0
   40.6790  267.0980  -26.5390 C   0  0  0  0  0  0  0  0  0  0  0  0
   40.7930  267.0800  -25.3130 O   0  0  0  0  0  0  0  0  0  0  0  0
   40.2220  268.1540  -27.2140 N   0  0  0  0  0  0  0  0  0  0  0  0
   39.8900  269.4000  -26.5310 C   0  0  2  0  0  0  0  0  0  0  0  0
   38.5500  269.3160  -25.8060 C   0  0  0  0  0  0  0  0  0  0  0  0
   38.3880  269.9090  -24.7320 O   0  0  0  0  0  0  0  0  0  0  0  0
   39.8840  270.5600  -27.5310 C   0  0  0  0  0  0  0  0  0  0  0  0
   39.5860  271.7890  -26.8820 O   0  0  0  0  0  0  0  0  0  0  0  0
   37.5840  268.5960  -26.3720 N   0  0  0  0  0  0  0  0  0  0  0  0
   36.2630  268.5120  -25.7640 C   0  0  2  0  0  0  0  0  0  0  0  0
   36.2900  267.6090  -24.5350 C   0  0  0  0  0  0  0  0  0  0  0  0
   36.9570  266.5710  -24.5200 O   0  0  0  0  0  0  0  0  0  0  0  0
   35.2430  267.9900  -26.7740 C   0  0  2  0  0  0  0  0  0  0  0  0
   35.5420  266.6270  -27.0950 O   0  0  0  0  0  0  0  0  0  0  0  0
   35.2770  268.8220  -28.0510 C   0  0  0  0  0  0  0  0  0  0  0  0
   35.5620  268.0150  -23.4970 N   0  0  0  0  0  0  0  0  0  0  0  0
   35.4880  267.2700  -22.2470 C   0  0  2  0  0  0  0  0  0  0  0  0
   34.0310  267.0140  -21.8940 C   0  0  0  0  0  0  0  0  0  0  0  0
   33.1690  267.8740  -22.1120 O   0  0  0  0  0  0  0  0  0  0  0  0
   36.1800  268.0270  -21.1010 C   0  0  0  0  0  0  0  0  0  0  0  0
   36.3450  267.1780  -19.8430 C   0  0  0  0  0  0  0  0  0  0  0  0
   35.3890  266.5840  -19.3390 O   0  0  0  0  0  0  0  0  0  0  0  0
   37.5710  267.1150  -19.3360 N   0  0  0  0  0  0  0  0  0  0  0  0
  2  1  1  6
  3  2  1  0
  4  3  2  0
  5  2  1  0
  6  5  1  0
  7  6  2  0
  8  6  1  0
 10  9  1  1
 11 10  1  0
 12 11  2  0
 13 10  1  0
 14 13  1  0
 13 15  1  1
 16 11  1  0
 17 16  1  0
 18 17  1  0
 19 18  2  0
 17 20  1  1
 21 20  1  0
 22 21  2  0
 23 21  1  0
 24 18  1  0
 25 24  1  0
 26 25  1  0
 27 26  2  0
 25 28  1  6
 29 28  1  0
 30 29  2  0
 31 29  1  0
 33 32  1  6
 34 33  1  0
 35 34  2  0
 36 33  1  0
 37 36  1  0
 38 37  1  0
 39 38  1  0
 40 39  1  0
 41 40  1  0
 42 40  2  0
 44 43  1  0
 45 44  1  0
 46 45  2  0
 47 45  1  0
 48 47  1  0
 49 48  1  0
 50 49  2  0
 51 49  1  0
 52 51  1  0
 53 52  1  0
 54 53  2  0
 52 55  1  6
 56 55  1  0
 57 53  1  0
 58 57  1  6
 59 58  1  0
 60 59  2  0
 61 58  1  0
 62 61  1  0
 61 63  1  6
 64 59  1  0
 65 64  1  0
 66 65  1  0
 67 66  2  0
 65 68  1  1
 69 68  1  0
 70 69  2  0
 71 69  1  0
M  END
$$$$
