
     RDKit          3D

125120  0  0  0  0  0  0  0  0999 V2000
   48.6530  259.2890  -22.0320 N   0  0  0  0  0  0  0  0  0  0  0  0
   49.8950  258.6080  -22.4660 C   0  0  2  0  0  0  0  0  0  0  0  0
   50.0210  257.2400  -21.7910 C   0  0  0  0  0  0  0  0  0  0  0  0
   50.4430  256.3020  -22.4650 O   0  0  0  0  0  0  0  0  0  0  0  0
   51.0790  259.4840  -22.1620 C   0  0  0  0  0  0  0  0  0  0  0  0
   49.6880  257.1170  -20.5240 N   0  0  0  0  0  0  0  0  0  0  0  0
   49.7920  255.7980  -19.8560 C   0  0  2  0  0  0  0  0  0  0  0  0
   48.6910  254.8940  -20.4030 C   0  0  0  0  0  0  0  0  0  0  0  0
   47.5780  255.3780  -20.5950 O   0  0  0  0  0  0  0  0  0  0  0  0
   49.6870  255.9690  -18.3410 C   0  0  0  0  0  0  0  0  0  0  0  0
   50.6410  256.9940  -17.7430 C   0  0  0  0  0  0  0  0  0  0  0  0
   52.0830  256.5500  -17.7020 C   0  0  0  0  0  0  0  0  0  0  0  0
   53.0040  257.5840  -17.0940 C   0  0  0  0  0  0  0  0  0  0  0  0
   54.2080  256.9590  -16.5000 N   0  0  0  0  0  0  0  0  0  0  0  0
   48.9810  253.6220  -20.5870 N   0  0  0  0  0  0  0  0  0  0  0  0
   47.9970  252.6490  -21.1220 C   0  0  2  0  0  0  0  0  0  0  0  0
   47.0040  252.2490  -20.0320 C   0  0  0  0  0  0  0  0  0  0  0  0
   47.2900  252.4570  -18.8650 O   0  0  0  0  0  0  0  0  0  0  0  0
   48.6780  251.4160  -21.7160 C   0  0  0  0  0  0  0  0  0  0  0  0
   49.6400  251.7330  -22.8410 C   0  0  0  0  0  0  0  0  0  0  0  0
   49.5930  252.8120  -23.4210 O   0  0  0  0  0  0  0  0  0  0  0  0
   50.5130  250.7930  -23.1620 N   0  0  0  0  0  0  0  0  0  0  0  0
   44.2430  253.2490  -34.2260 N   0  0  0  0  0  0  0  0  0  0  0  0
   44.4180  254.5410  -34.8760 C   0  0  2  0  0  0  0  0  0  0  0  0
   45.7240  254.6540  -35.6520 C   0  0  0  0  0  0  0  0  0  0  0  0
   45.9890  255.7120  -36.2350 O   0  0  0  0  0  0  0  0  0  0  0  0
   44.3390  255.6690  -33.8430 C   0  0  0  0  0  0  0  0  0  0  0  0
   44.3990  256.9400  -34.4720 O   0  0  0  0  0  0  0  0  0  0  0  0
   46.5380  253.6110  -35.6740 N   0  0  0  0  0  0  0  0  0  0  0  0
   47.7670  253.6290  -36.4360 C   0  0  0  0  0  0  0  0  0  0  0  0
   48.8190  252.7640  -35.7760 C   0  0  0  0  0  0  0  0  0  0  0  0
   48.5600  252.0830  -34.7890 O   0  0  0  0  0  0  0  0  0  0  0  0
   50.0140  252.8080  -36.3480 N   0  0  0  0  0  0  0  0  0  0  0  0
   51.1490  252.0530  -35.8560 C   0  0  0  0  0  0  0  0  0  0  0  0
   51.5680  250.9570  -36.8220 C   0  0  0  0  0  0  0  0  0  0  0  0
   50.9930  250.7740  -37.8970 O   0  0  0  0  0  0  0  0  0  0  0  0
   52.5990  250.2240  -36.4100 N   0  0  0  0  0  0  0  0  0  0  0  0
   53.0830  249.0980  -37.1910 C   0  0  2  0  0  0  0  0  0  0  0  0
   52.0540  247.9720  -37.1830 C   0  0  0  0  0  0  0  0  0  0  0  0
   51.0130  248.0430  -36.5220 O   0  0  0  0  0  0  0  0  0  0  0  0
   54.4220  248.6070  -36.6500 C   0  0  0  0  0  0  0  0  0  0  0  0
   55.5540  249.5760  -36.9240 C   0  0  0  0  0  0  0  0  0  0  0  0
   55.3740  250.4780  -37.7680 O   0  0  0  0  0  0  0  0  0  0  0  0
   56.6260  249.4280  -36.3010 O   0  0  0  0  0  0  0  0  0  0  0  0
   52.3440  245.2570  -35.7590 N   0  0  0  0  0  0  0  0  0  0  0  0
   52.2890  244.6930  -34.4150 C   0  0  2  0  0  0  0  0  0  0  0  0
   51.1990  245.3620  -33.5860 C   0  0  0  0  0  0  0  0  0  0  0  0
   50.2630  244.7050  -33.1170 O   0  0  0  0  0  0  0  0  0  0  0  0
   53.6520  244.8400  -33.7360 C   0  0  0  0  0  0  0  0  0  0  0  0
   54.7860  244.1610  -34.4830 C   0  0  0  0  0  0  0  0  0  0  0  0
   54.6210  242.6550  -34.5420 C   0  0  0  0  0  0  0  0  0  0  0  0
   53.9540  242.0920  -33.6470 O   0  0  0  0  0  0  0  0  0  0  0  0
   55.1560  242.0330  -35.4850 O   0  0  0  0  0  0  0  0  0  0  0  0
   51.3000  246.6820  -33.4160 N   0  0  0  0  0  0  0  0  0  0  0  0
   50.3700  247.4120  -32.5580 C   0  0  2  0  0  0  0  0  0  0  0  0
   48.9570  247.3730  -33.1290 C   0  0  0  0  0  0  0  0  0  0  0  0
   47.9750  247.2510  -32.3870 O   0  0  0  0  0  0  0  0  0  0  0  0
   50.8630  248.8590  -32.3670 C   0  0  0  0  0  0  0  0  0  0  0  0
   49.8610  249.6710  -31.5620 C   0  0  0  0  0  0  0  0  0  0  0  0
   52.2280  248.8660  -31.6970 C   0  0  0  0  0  0  0  0  0  0  0  0
   59.9150  242.5450  -30.3040 N   0  0  0  0  0  0  0  0  0  0  0  0
   60.2930  243.6390  -29.4050 C   0  0  2  0  0  0  0  0  0  0  0  0
   61.0160  244.7710  -30.1390 C   0  0  0  0  0  0  0  0  0  0  0  0
   61.7990  245.5090  -29.5360 O   0  0  0  0  0  0  0  0  0  0  0  0
   61.1480  243.1340  -28.2370 C   0  0  0  0  0  0  0  0  0  0  0  0
   60.6540  241.8500  -27.6380 C   0  0  0  0  0  0  0  0  0  0  0  0
   59.5330  241.6760  -26.8770 C   0  0  0  0  0  0  0  0  0  0  0  0
   61.2750  240.5630  -27.7360 C   0  0  0  0  0  0  0  0  0  0  0  0
   59.4130  240.3590  -26.5040 N   0  0  0  0  0  0  0  0  0  0  0  0
   60.4710  239.6560  -27.0170 C   0  0  0  0  0  0  0  0  0  0  0  0
   62.4330  240.0900  -28.3620 C   0  0  0  0  0  0  0  0  0  0  0  0
   60.7830  238.3060  -26.9090 C   0  0  0  0  0  0  0  0  0  0  0  0
   62.7400  238.7460  -28.2560 C   0  0  0  0  0  0  0  0  0  0  0  0
   61.9170  237.8710  -27.5340 C   0  0  0  0  0  0  0  0  0  0  0  0
   60.7650  244.9170  -31.4430 N   0  0  0  0  0  0  0  0  0  0  0  0
   61.2710  246.0500  -32.2270 C   0  0  2  0  0  0  0  0  0  0  0  0
   62.7910  246.1840  -32.1580 C   0  0  0  0  0  0  0  0  0  0  0  0
   63.3320  247.2910  -32.1440 O   0  0  0  0  0  0  0  0  0  0  0  0
   60.6380  247.3630  -31.7600 C   0  0  0  0  0  0  0  0  0  0  0  0
   59.2070  247.5780  -32.2250 C   0  0  0  0  0  0  0  0  0  0  0  0
   59.1330  248.2770  -33.5720 C   0  0  0  0  0  0  0  0  0  0  0  0
   60.0910  248.9230  -34.0000 O   0  0  0  0  0  0  0  0  0  0  0  0
   57.9930  248.1500  -34.2460 N   0  0  0  0  0  0  0  0  0  0  0  0
   43.4220  252.6860  -24.4600 N   0  0  0  0  0  0  0  0  0  0  0  0
   44.0820  253.9820  -24.5330 C   0  0  2  0  0  0  0  0  0  0  0  0
   43.0240  255.0750  -24.4980 C   0  0  0  0  0  0  0  0  0  0  0  0
   41.9220  254.9080  -25.0290 O   0  0  0  0  0  0  0  0  0  0  0  0
   44.9330  254.1290  -25.8050 C   0  0  2  0  0  0  0  0  0  0  0  0
   45.6450  252.9120  -26.0580 O   0  0  0  0  0  0  0  0  0  0  0  0
   45.9310  255.2660  -25.6550 C   0  0  0  0  0  0  0  0  0  0  0  0
   40.6890  253.2810  -27.4780 N   0  0  0  0  0  0  0  0  0  0  0  0
   41.2990  252.6140  -28.6200 C   0  0  2  0  0  0  0  0  0  0  0  0
   42.2710  251.5560  -28.1260 C   0  0  0  0  0  0  0  0  0  0  0  0
   43.2630  251.8940  -27.4630 O   0  0  0  0  0  0  0  0  0  0  0  0
   42.0130  253.6200  -29.5190 C   0  0  0  0  0  0  0  0  0  0  0  0
   41.0800  254.6010  -30.1980 C   0  0  0  0  0  0  0  0  0  0  0  0
   41.8360  255.5260  -31.1320 C   0  0  0  0  0  0  0  0  0  0  0  0
   40.9380  256.4830  -31.7650 N   0  0  0  0  0  0  0  0  0  0  0  0
   40.2140  256.2160  -32.8450 C   0  0  0  0  0  0  0  0  0  0  0  0
   39.4170  257.1430  -33.3590 N   0  0  0  0  0  0  0  0  0  0  0  0
   40.2850  255.0200  -33.4130 N   0  0  0  0  0  0  0  0  0  0  0  0
   48.8350  247.9970  -28.3820 N   0  0  0  0  0  0  0  0  0  0  0  0
   49.8960  247.2050  -27.7880 C   0  0  0  0  0  0  0  0  0  0  0  0
   51.2370  247.8640  -28.0400 C   0  0  0  0  0  0  0  0  0  0  0  0
   52.0530  247.3610  -28.8130 O   0  0  0  0  0  0  0  0  0  0  0  0
   51.4640  248.9970  -27.3840 N   0  0  0  0  0  0  0  0  0  0  0  0
   52.7010  249.7400  -27.5440 C   0  0  0  0  0  0  0  0  0  0  0  0
   53.9520  249.0160  -27.0870 C   0  0  0  0  0  0  0  0  0  0  0  0
   54.9860  249.0710  -27.7520 O   0  0  0  0  0  0  0  0  0  0  0  0
   53.8630  248.3350  -25.9480 N   0  0  0  0  0  0  0  0  0  0  0  0
   55.0100  247.6140  -25.4080 C   0  0  2  0  0  0  0  0  0  0  0  0
   54.6390  246.2650  -24.7980 C   0  0  0  0  0  0  0  0  0  0  0  0
   53.5070  246.0540  -24.3650 O   0  0  0  0  0  0  0  0  0  0  0  0
   55.7380  248.4730  -24.3710 C   0  0  0  0  0  0  0  0  0  0  0  0
   56.9580  247.7820  -23.7940 C   0  0  0  0  0  0  0  0  0  0  0  0
   57.2540  246.6440  -24.2160 O   0  0  0  0  0  0  0  0  0  0  0  0
   57.6210  248.3760  -22.9190 O   0  0  0  0  0  0  0  0  0  0  0  0
   55.6100  245.3580  -24.7710 N   0  0  0  0  0  0  0  0  0  0  0  0
   55.4200  244.0320  -24.2030 C   0  0  2  0  0  0  0  0  0  0  0  0
   55.5320  244.0310  -22.6830 C   0  0  0  0  0  0  0  0  0  0  0  0
   55.1150  243.0590  -22.0430 O   0  0  0  0  0  0  0  0  0  0  0  0
   56.4460  243.0630  -24.8010 C   0  0  0  0  0  0  0  0  0  0  0  0
   56.0790  241.5960  -24.6760 C   0  0  0  0  0  0  0  0  0  0  0  0
   54.5270  241.2060  -25.5080 S   0  0  0  0  0  0  0  0  0  0  0  0
   54.9270  241.6500  -27.1960 C   0  0  0  0  0  0  0  0  0  0  0  0
  2  1  1  0
  3  2  1  0
  4  3  2  0
  2  5  1  1
  6  3  1  0
  7  6  1  0
  8  7  1  0
  9  8  2  0
  7 10  1  1
 11 10  1  0
 12 11  1  0
 13 12  1  0
 14 13  1  0
 15  8  1  0
 16 15  1  0
 17 16  1  0
 18 17  2  0
 16 19  1  1
 20 19  1  0
 21 20  2  0
 22 20  1  0
 24 23  1  1
 25 24  1  0
 26 25  2  0
 27 24  1  0
 28 27  1  0
 29 25  1  0
 30 29  1  0
 31 30  1  0
 32 31  2  0
 33 31  1  0
 34 33  1  0
 35 34  1  0
 36 35  2  0
 37 35  1  0
 38 37  1  0
 39 38  1  0
 40 39  2  0
 38 41  1  1
 42 41  1  0
 43 42  2  0
 44 42  1  0
 46 45  1  6
 47 46  1  0
 48 47  2  0
 49 46  1  0
 50 49  1  0
 51 50  1  0
 52 51  2  0
 53 51  1  0
 54 47  1  0
 55 54  1  6
 56 55  1  0
 57 56  2  0
 58 55  1  0
 59 58  1  0
 60 58  1  0
 62 61  1  6
 63 62  1  0
 64 63  2  0
 65 62  1  0
 66 65  1  0
 67 66  2  0
 68 66  1  0
 69 67  1  0
 70 69  1  0
 70 68  2  0
 71 68  1  0
 72 70  1  0
 73 71  2  0
 74 73  1  0
 74 72  2  0
 75 63  1  0
 76 75  1  0
 77 76  1  0
 78 77  2  0
 76 79  1  1
 80 79  1  0
 81 80  1  0
 82 81  2  0
 83 81  1  0
 85 84  1  6
 86 85  1  0
 87 86  2  0
 88 85  1  0
 89 88  1  0
 88 90  1  1
 92 91  1  1
 93 92  1  0
 94 93  2  0
 95 92  1  0
 96 95  1  0
 97 96  1  0
 98 97  1  0
 99 98  1  0
100 99  1  0
101 99  2  0
103102  1  0
104103  1  0
105104  2  0
106104  1  0
107106  1  0
108107  1  0
109108  2  0
110108  1  0
111110  1  0
112111  1  0
113112  2  0
111114  1  1
115114  1  0
116115  2  0
117115  1  0
118112  1  0
119118  1  0
120119  1  0
121120  2  0
119122  1  6
123122  1  0
124123  1  0
125124  1  0
M  END
$$$$
