
     RDKit          3D

155151  0  0  0  0  0  0  0  0999 V2000
  130.3050  219.4250  224.6170 N   0  0  0  0  0  0  0  0  0  0  0  0
  130.9910  218.6030  223.6310 C   0  0  2  0  0  0  0  0  0  0  0  0
  132.0730  219.4290  222.9390 C   0  0  0  0  0  0  0  0  0  0  0  0
  132.0960  220.6510  223.0260 O   0  0  0  0  0  0  0  0  0  0  0  0
  129.9830  218.0150  222.6370 C   0  0  0  0  0  0  0  0  0  0  0  0
  130.3960  216.9390  221.6370 C   0  0  0  0  0  0  0  0  0  0  0  0
  129.3110  215.9300  221.4900 C   0  0  0  0  0  0  0  0  0  0  0  0
  130.6620  217.5750  220.2960 C   0  0  0  0  0  0  0  0  0  0  0  0
  134.2190  219.2450  219.0410 N   0  0  0  0  0  0  0  0  0  0  0  0
  134.5060  218.5680  217.7860 C   0  0  2  0  0  0  0  0  0  0  0  0
  135.9010  218.9930  217.3660 C   0  0  0  0  0  0  0  0  0  0  0  0
  136.0860  220.0790  216.8250 O   0  0  0  0  0  0  0  0  0  0  0  0
  133.4740  218.9550  216.7380 C   0  0  0  0  0  0  0  0  0  0  0  0
  132.0880  218.4330  217.0080 C   0  0  0  0  0  0  0  0  0  0  0  0
  131.1940  218.5660  215.7810 C   0  0  0  0  0  0  0  0  0  0  0  0
  130.8880  220.0230  215.4650 C   0  0  0  0  0  0  0  0  0  0  0  0
  129.9000  220.1750  214.3640 N   0  0  0  0  0  0  0  0  0  0  0  0
  131.3590  206.4140  214.8050 N   0  0  0  0  0  0  0  0  0  0  0  0
  131.1350  207.8470  214.8720 C   0  0  2  0  0  0  0  0  0  0  0  0
  129.6580  208.2010  214.8640 C   0  0  0  0  0  0  0  0  0  0  0  0
  129.2980  209.3180  215.2330 O   0  0  0  0  0  0  0  0  0  0  0  0
  131.8460  208.5110  213.6950 C   0  0  0  0  0  0  0  0  0  0  0  0
  131.9870  210.0220  213.5760 C   0  0  0  0  0  0  0  0  0  0  0  0
  132.7590  210.5360  214.7390 C   0  0  0  0  0  0  0  0  0  0  0  0
  132.6940  210.3670  212.2960 C   0  0  0  0  0  0  0  0  0  0  0  0
  128.7890  207.2830  214.4840 N   0  0  0  0  0  0  0  0  0  0  0  0
  127.3850  207.6120  214.3560 C   0  0  2  0  0  0  0  0  0  0  0  0
  126.5540  207.1480  215.5370 C   0  0  0  0  0  0  0  0  0  0  0  0
  125.3370  207.3240  215.5270 O   0  0  0  0  0  0  0  0  0  0  0  0
  126.8460  207.0180  213.0630 C   0  0  0  0  0  0  0  0  0  0  0  0
  127.6620  207.5280  211.8760 C   0  0  0  0  0  0  0  0  0  0  0  0
  127.1510  206.9470  210.5860 C   0  0  0  0  0  0  0  0  0  0  0  0
  127.6800  209.0400  211.8040 C   0  0  0  0  0  0  0  0  0  0  0  0
  127.1710  206.5610  216.5490 N   0  0  0  0  0  0  0  0  0  0  0  0
  126.4290  205.9590  217.6470 C   0  0  2  0  0  0  0  0  0  0  0  0
  126.9440  206.4340  219.0000 C   0  0  0  0  0  0  0  0  0  0  0  0
  126.8090  205.7020  219.9870 O   0  0  0  0  0  0  0  0  0  0  0  0
  126.4780  204.4400  217.5330 C   0  0  0  0  0  0  0  0  0  0  0  0
  125.7430  203.9150  216.3430 C   0  0  0  0  0  0  0  0  0  0  0  0
  126.3100  203.8650  215.0920 N   0  0  0  0  0  0  0  0  0  0  0  0
  124.5060  203.3860  216.2150 C   0  0  0  0  0  0  0  0  0  0  0  0
  125.4470  203.3500  214.2380 C   0  0  0  0  0  0  0  0  0  0  0  0
  124.3460  203.0440  214.8960 N   0  0  0  0  0  0  0  0  0  0  0  0
  127.5640  207.6240  219.0150 N   0  0  0  0  0  0  0  0  0  0  0  0
  128.2650  208.1910  220.1720 C   0  0  2  0  0  0  0  0  0  0  0  0
  127.4160  208.1350  221.4300 C   0  0  0  0  0  0  0  0  0  0  0  0
  127.8650  207.6970  222.4960 O   0  0  0  0  0  0  0  0  0  0  0  0
  128.6760  209.6400  219.8720 C   0  0  0  0  0  0  0  0  0  0  0  0
  129.5340  210.1780  220.9820 C   0  0  0  0  0  0  0  0  0  0  0  0
  129.3950  209.7110  218.5710 C   0  0  0  0  0  0  0  0  0  0  0  0
  126.1760  208.5860  221.3230 N   0  0  0  0  0  0  0  0  0  0  0  0
  125.3280  208.6740  222.5010 C   0  0  2  0  0  0  0  0  0  0  0  0
  124.9140  207.2990  222.9790 C   0  0  0  0  0  0  0  0  0  0  0  0
  124.6930  207.1020  224.1760 O   0  0  0  0  0  0  0  0  0  0  0  0
  124.1160  209.5360  222.1870 C   0  0  0  0  0  0  0  0  0  0  0  0
  124.4620  210.9960  222.0140 C   0  0  0  0  0  0  0  0  0  0  0  0
  124.9450  211.3210  220.6260 C   0  0  0  0  0  0  0  0  0  0  0  0
  124.9560  210.3970  219.7980 O   0  0  0  0  0  0  0  0  0  0  0  0
  125.3410  212.4720  220.3680 O   0  0  0  0  0  0  0  0  0  0  0  0
  135.2460  214.7980  221.1020 N   0  0  0  0  0  0  0  0  0  0  0  0
  135.3250  213.9330  219.9420 C   0  0  2  0  0  0  0  0  0  0  0  0
  136.4910  214.4100  219.1000 C   0  0  0  0  0  0  0  0  0  0  0  0
  136.6270  215.6100  218.8410 O   0  0  0  0  0  0  0  0  0  0  0  0
  134.0180  213.9510  219.1460 C   0  0  2  0  0  0  0  0  0  0  0  0
  132.8920  213.4220  220.0070 C   0  0  0  0  0  0  0  0  0  0  0  0
  134.1280  213.1100  217.9200 C   0  0  0  0  0  0  0  0  0  0  0  0
  131.5460  213.5960  219.3800 C   0  0  0  0  0  0  0  0  0  0  0  0
  135.1740  216.6120  210.6670 N   0  0  0  0  0  0  0  0  0  0  0  0
  134.5280  217.8430  211.0990 C   0  0  2  0  0  0  0  0  0  0  0  0
  135.1990  219.0340  210.4270 C   0  0  0  0  0  0  0  0  0  0  0  0
  135.9620  219.7770  211.0330 O   0  0  0  0  0  0  0  0  0  0  0  0
  134.5730  217.9250  212.6120 C   0  0  0  0  0  0  0  0  0  0  0  0
  133.8130  216.8260  213.2820 C   0  0  0  0  0  0  0  0  0  0  0  0
  132.7520  216.2020  212.6450 C   0  0  0  0  0  0  0  0  0  0  0  0
  134.2070  216.3580  214.5150 C   0  0  0  0  0  0  0  0  0  0  0  0
  132.0730  215.1760  213.2540 C   0  0  0  0  0  0  0  0  0  0  0  0
  133.5250  215.3400  215.1340 C   0  0  0  0  0  0  0  0  0  0  0  0
  132.4660  214.7410  214.5020 C   0  0  0  0  0  0  0  0  0  0  0  0
  133.0990  223.3780  209.9270 N   0  0  0  0  0  0  0  0  0  0  0  0
  132.0250  223.4990  210.8890 C   0  0  2  0  0  0  0  0  0  0  0  0
  132.4960  224.0840  212.2050 C   0  0  0  0  0  0  0  0  0  0  0  0
  131.7020  224.7030  212.9090 O   0  0  0  0  0  0  0  0  0  0  0  0
  131.3900  222.1220  211.1000 C   0  0  0  0  0  0  0  0  0  0  0  0
  130.6840  221.6300  209.8260 C   0  0  0  0  0  0  0  0  0  0  0  0
  130.5020  220.1120  209.7830 C   0  0  0  0  0  0  0  0  0  0  0  0
  129.4750  219.5990  210.7680 C   0  0  0  0  0  0  0  0  0  0  0  0
  128.1210  220.0390  210.3830 N   0  0  0  0  0  0  0  0  0  0  0  0
  128.9900  223.8790  221.4700 N   0  0  0  0  0  0  0  0  0  0  0  0
  127.8100  223.1550  220.9640 C   0  0  2  0  0  0  0  0  0  0  0  0
  127.1960  222.1490  221.9570 C   0  0  0  0  0  0  0  0  0  0  0  0
  127.1820  220.9410  221.7270 O   0  0  0  0  0  0  0  0  0  0  0  0
  128.1850  222.5090  219.6320 C   0  0  0  0  0  0  0  0  0  0  0  0
  127.0340  222.1350  218.7250 C   0  0  0  0  0  0  0  0  0  0  0  0
  127.5140  221.8170  217.3310 C   0  0  0  0  0  0  0  0  0  0  0  0
  128.7330  221.8830  217.0990 O   0  0  0  0  0  0  0  0  0  0  0  0
  126.6750  221.5440  216.4520 O   0  0  0  0  0  0  0  0  0  0  0  0
  126.8150  222.6840  223.1260 N   0  0  0  0  0  0  0  0  0  0  0  0
  126.3900  221.9260  224.3090 C   0  0  2  0  0  0  0  0  0  0  0  0
  125.3470  220.8550  224.0270 C   0  0  0  0  0  0  0  0  0  0  0  0
  124.4780  221.0270  223.1720 O   0  0  0  0  0  0  0  0  0  0  0  0
  125.8150  222.8790  225.3500 C   0  0  0  0  0  0  0  0  0  0  0  0
  125.4590  219.7460  224.7570 N   0  0  0  0  0  0  0  0  0  0  0  0
  124.5820  218.5770  224.5960 C   0  0  2  0  0  0  0  0  0  0  0  0
  123.1470  218.9610  224.9120 C   0  0  0  0  0  0  0  0  0  0  0  0
  122.8910  219.5900  225.9520 O   0  0  0  0  0  0  0  0  0  0  0  0
  125.0390  217.4060  225.4910 C   0  0  2  0  0  0  0  0  0  0  0  0
  126.3610  216.8130  225.0270 C   0  0  0  0  0  0  0  0  0  0  0  0
  124.0420  216.2930  225.5010 C   0  0  0  0  0  0  0  0  0  0  0  0
  127.5210  217.2950  225.7420 C   0  0  0  0  0  0  0  0  0  0  0  0
  122.1880  218.6220  224.0580 N   0  0  0  0  0  0  0  0  0  0  0  0
  120.7860  218.8670  224.3780 C   0  0  2  0  0  0  0  0  0  0  0  0
  120.2670  217.9680  225.4820 C   0  0  0  0  0  0  0  0  0  0  0  0
  120.7840  216.8830  225.7520 O   0  0  0  0  0  0  0  0  0  0  0  0
  120.0790  218.5430  223.0690 C   0  0  0  0  0  0  0  0  0  0  0  0
  120.9540  217.5950  222.3980 C   0  0  0  0  0  0  0  0  0  0  0  0
  122.3420  217.9900  222.7420 C   0  0  0  0  0  0  0  0  0  0  0  0
  117.5160  216.2730  225.8540 N   0  0  0  0  0  0  0  0  0  0  0  0
  116.8640  215.0040  225.5440 C   0  0  2  0  0  0  0  0  0  0  0  0
  117.8120  213.8280  225.7480 C   0  0  0  0  0  0  0  0  0  0  0  0
  117.4460  212.8250  226.3700 O   0  0  0  0  0  0  0  0  0  0  0  0
  116.2680  215.0440  224.1330 C   0  0  0  0  0  0  0  0  0  0  0  0
  117.2150  215.3960  222.9990 C   0  0  0  0  0  0  0  0  0  0  0  0
  116.5210  215.4050  221.6670 C   0  0  0  0  0  0  0  0  0  0  0  0
  115.3160  215.1010  221.6440 O   0  0  0  0  0  0  0  0  0  0  0  0
  117.1620  215.7410  220.6530 O   0  0  0  0  0  0  0  0  0  0  0  0
  119.0390  213.9470  225.2400 N   0  0  0  0  0  0  0  0  0  0  0  0
  120.0830  212.9620  225.4640 C   0  0  2  0  0  0  0  0  0  0  0  0
  120.3780  212.8120  226.9420 C   0  0  0  0  0  0  0  0  0  0  0  0
  120.5830  211.7010  227.4470 O   0  0  0  0  0  0  0  0  0  0  0  0
  121.3320  213.4070  224.6990 C   0  0  0  0  0  0  0  0  0  0  0  0
  122.3430  212.3230  224.7190 C   0  0  0  0  0  0  0  0  0  0  0  0
  120.9720  213.8100  223.2860 C   0  0  0  0  0  0  0  0  0  0  0  0
  117.5020  211.0670  228.6610 N   0  0  0  0  0  0  0  0  0  0  0  0
  117.5740  209.6700  228.2770 C   0  0  2  0  0  0  0  0  0  0  0  0
  118.7290  208.9820  228.9740 C   0  0  0  0  0  0  0  0  0  0  0  0
  118.7170  207.7620  229.1340 O   0  0  0  0  0  0  0  0  0  0  0  0
  117.6740  209.5530  226.7540 C   0  0  0  0  0  0  0  0  0  0  0  0
  117.3860  208.1580  226.1990 C   0  0  0  0  0  0  0  0  0  0  0  0
  117.3390  208.1230  224.6620 C   0  0  0  0  0  0  0  0  0  0  0  0
  116.0830  208.7190  224.0490 C   0  0  0  0  0  0  0  0  0  0  0  0
  114.9080  207.8620  224.3390 N   0  0  0  0  0  0  0  0  0  0  0  0
  119.7080  209.7420  229.4310 N   0  0  0  0  0  0  0  0  0  0  0  0
  120.7560  209.1060  230.2010 C   0  0  2  0  0  0  0  0  0  0  0  0
  120.3170  208.8620  231.6330 C   0  0  0  0  0  0  0  0  0  0  0  0
  120.5450  207.7680  232.1570 O   0  0  0  0  0  0  0  0  0  0  0  0
  122.0130  209.9560  230.1410 C   0  0  0  0  0  0  0  0  0  0  0  0
  122.7340  209.7800  228.8820 C   0  0  0  0  0  0  0  0  0  0  0  0
  122.5340  208.8050  227.9690 C   0  0  0  0  0  0  0  0  0  0  0  0
  123.7110  210.6540  228.3340 C   0  0  0  0  0  0  0  0  0  0  0  0
  123.3700  208.9810  226.9000 N   0  0  0  0  0  0  0  0  0  0  0  0
  124.1020  210.1180  227.1020 C   0  0  0  0  0  0  0  0  0  0  0  0
  124.3120  211.8280  228.7770 C   0  0  0  0  0  0  0  0  0  0  0  0
  125.0630  210.7130  226.3060 C   0  0  0  0  0  0  0  0  0  0  0  0
  125.2710  212.4140  227.9890 C   0  0  0  0  0  0  0  0  0  0  0  0
  125.6340  211.8610  226.7650 C   0  0  0  0  0  0  0  0  0  0  0  0
  2  1  1  1
  3  2  1  0
  4  3  2  0
  5  2  1  0
  6  5  1  0
  7  6  1  0
  8  6  1  0
 10  9  1  1
 11 10  1  0
 12 11  2  0
 13 10  1  0
 14 13  1  0
 15 14  1  0
 16 15  1  0
 17 16  1  0
 19 18  1  6
 20 19  1  0
 21 20  2  0
 22 19  1  0
 23 22  1  0
 24 23  1  0
 25 23  1  0
 26 20  1  0
 27 26  1  0
 28 27  1  0
 29 28  2  0
 27 30  1  6
 31 30  1  0
 32 31  1  0
 33 31  1  0
 34 28  1  0
 35 34  1  0
 36 35  1  0
 37 36  2  0
 35 38  1  1
 39 38  1  0
 40 39  1  0
 41 39  2  0
 42 40  2  0
 43 41  1  0
 43 42  1  0
 44 36  1  0
 45 44  1  6
 46 45  1  0
 47 46  2  0
 48 45  1  0
 49 48  1  0
 50 48  1  0
 51 46  1  0
 52 51  1  0
 53 52  1  0
 54 53  2  0
 52 55  1  6
 56 55  1  0
 57 56  1  0
 58 57  2  0
 59 57  1  0
 61 60  1  1
 62 61  1  0
 63 62  2  0
 64 61  1  0
 65 64  1  0
 64 66  1  6
 67 65  1  0
 69 68  1  1
 70 69  1  0
 71 70  2  0
 72 69  1  0
 73 72  1  0
 74 73  2  0
 75 73  1  0
 76 74  1  0
 77 75  2  0
 78 77  1  0
 78 76  2  0
 80 79  1  6
 81 80  1  0
 82 81  2  0
 83 80  1  0
 84 83  1  0
 85 84  1  0
 86 85  1  0
 87 86  1  0
 89 88  1  1
 90 89  1  0
 91 90  2  0
 92 89  1  0
 93 92  1  0
 94 93  1  0
 95 94  2  0
 96 94  1  0
 97 90  1  0
 98 97  1  0
 99 98  1  0
100 99  2  0
 98101  1  1
102 99  1  0
103102  1  1
104103  1  0
105104  2  0
106103  1  0
107106  1  0
106108  1  6
109107  1  0
110104  1  0
111110  1  0
111112  1  1
113112  2  0
114111  1  0
115114  1  0
116115  1  0
116110  1  0
118117  1  6
119118  1  0
120119  2  0
121118  1  0
122121  1  0
123122  1  0
124123  2  0
125123  1  0
126119  1  0
127126  1  1
128127  1  0
129128  2  0
130127  1  0
131130  1  0
132130  1  0
134133  1  6
135134  1  0
136135  2  0
137134  1  0
138137  1  0
139138  1  0
140139  1  0
141140  1  0
142135  1  0
143142  1  0
144143  1  0
145144  2  0
143146  1  1
147146  1  0
148147  2  0
149147  1  0
150148  1  0
151150  1  0
151149  2  0
152149  1  0
153151  1  0
154152  2  0
155154  1  0
155153  2  0
M  END
$$$$
