
     RDKit          3D

141137  0  0  0  0  0  0  0  0999 V2000
  122.0040  215.2110  238.5350 N   0  0  0  0  0  0  0  0  0  0  0  0
  123.0580  215.6250  237.6340 C   0  0  2  0  0  0  0  0  0  0  0  0
  123.8170  216.7990  238.2160 C   0  0  0  0  0  0  0  0  0  0  0  0
  123.2760  217.5690  239.0040 O   0  0  0  0  0  0  0  0  0  0  0  0
  122.4270  216.0390  236.3080 C   0  0  0  0  0  0  0  0  0  0  0  0
  126.4440  218.9490  235.7790 N   0  0  0  0  0  0  0  0  0  0  0  0
  127.3280  219.2530  234.6540 C   0  0  2  0  0  0  0  0  0  0  0  0
  128.2600  220.3820  235.0680 C   0  0  0  0  0  0  0  0  0  0  0  0
  127.8190  221.5140  235.2940 O   0  0  0  0  0  0  0  0  0  0  0  0
  126.5300  219.6240  233.4080 C   0  0  0  0  0  0  0  0  0  0  0  0
  125.8810  218.4330  232.7170 C   0  0  0  0  0  0  0  0  0  0  0  0
  125.2000  218.8030  231.4060 C   0  0  0  0  0  0  0  0  0  0  0  0
  123.9020  219.5350  231.6310 C   0  0  0  0  0  0  0  0  0  0  0  0
  123.1480  219.7800  230.3690 N   0  0  0  0  0  0  0  0  0  0  0  0
  129.2510  210.8510  225.0860 N   0  0  0  0  0  0  0  0  0  0  0  0
  128.3970  211.9240  225.5810 C   0  0  2  0  0  0  0  0  0  0  0  0
  126.9710  211.7620  225.0950 C   0  0  0  0  0  0  0  0  0  0  0  0
  126.0350  212.2730  225.7200 O   0  0  0  0  0  0  0  0  0  0  0  0
  128.9630  213.2780  225.1370 C   0  0  0  0  0  0  0  0  0  0  0  0
  128.3240  214.5940  225.5930 C   0  0  0  0  0  0  0  0  0  0  0  0
  128.3830  214.7390  227.1020 C   0  0  0  0  0  0  0  0  0  0  0  0
  129.0110  215.7760  224.9230 C   0  0  0  0  0  0  0  0  0  0  0  0
  126.7880  211.0600  223.9980 N   0  0  0  0  0  0  0  0  0  0  0  0
  125.4570  210.8160  223.5060 C   0  0  2  0  0  0  0  0  0  0  0  0
  124.9260  209.4960  224.0170 C   0  0  0  0  0  0  0  0  0  0  0  0
  123.7650  209.1670  223.7630 O   0  0  0  0  0  0  0  0  0  0  0  0
  125.5030  210.7890  221.9870 C   0  0  0  0  0  0  0  0  0  0  0  0
  126.1280  212.0830  221.4670 C   0  0  0  0  0  0  0  0  0  0  0  0
  126.2700  212.0450  219.9540 C   0  0  0  0  0  0  0  0  0  0  0  0
  125.4100  213.3390  221.9550 C   0  0  0  0  0  0  0  0  0  0  0  0
  125.7430  208.7530  224.7560 N   0  0  0  0  0  0  0  0  0  0  0  0
  125.4150  207.3930  225.1400 C   0  0  2  0  0  0  0  0  0  0  0  0
  125.4350  207.2320  226.6490 C   0  0  0  0  0  0  0  0  0  0  0  0
  125.5210  206.1120  227.1420 O   0  0  0  0  0  0  0  0  0  0  0  0
  126.4330  206.4440  224.5180 C   0  0  0  0  0  0  0  0  0  0  0  0
  126.4900  206.5280  223.0290 C   0  0  0  0  0  0  0  0  0  0  0  0
  127.3700  207.3600  222.3700 N   0  0  0  0  0  0  0  0  0  0  0  0
  125.7610  205.9150  222.0700 C   0  0  0  0  0  0  0  0  0  0  0  0
  127.1900  207.2400  221.0660 C   0  0  0  0  0  0  0  0  0  0  0  0
  126.2200  206.3690  220.8580 N   0  0  0  0  0  0  0  0  0  0  0  0
  125.2390  208.3320  227.3770 N   0  0  0  0  0  0  0  0  0  0  0  0
  125.6410  208.3800  228.7810 C   0  0  2  0  0  0  0  0  0  0  0  0
  124.7730  207.4940  229.6520 C   0  0  0  0  0  0  0  0  0  0  0  0
  125.2740  206.6180  230.3640 O   0  0  0  0  0  0  0  0  0  0  0  0
  125.5750  209.8270  229.2870 C   0  0  0  0  0  0  0  0  0  0  0  0
  125.9120  209.8720  230.7530 C   0  0  0  0  0  0  0  0  0  0  0  0
  126.5000  210.6950  228.5140 C   0  0  0  0  0  0  0  0  0  0  0  0
  123.4630  207.6460  229.5250 N   0  0  0  0  0  0  0  0  0  0  0  0
  122.5330  206.8980  230.3510 C   0  0  2  0  0  0  0  0  0  0  0  0
  122.5310  205.4360  229.9880 C   0  0  0  0  0  0  0  0  0  0  0  0
  122.2830  204.5850  230.8400 O   0  0  0  0  0  0  0  0  0  0  0  0
  121.1290  207.4540  230.1480 C   0  0  0  0  0  0  0  0  0  0  0  0
  121.0020  208.9490  230.3620 C   0  0  0  0  0  0  0  0  0  0  0  0
  121.2180  209.7290  229.0710 C   0  0  0  0  0  0  0  0  0  0  0  0
  121.3950  209.0740  228.0220 O   0  0  0  0  0  0  0  0  0  0  0  0
  121.2190  210.9770  229.1020 O   0  0  0  0  0  0  0  0  0  0  0  0
  128.9280  215.4000  236.1220 N   0  0  0  0  0  0  0  0  0  0  0  0
  129.3410  215.4360  234.7270 C   0  0  2  0  0  0  0  0  0  0  0  0
  130.3860  216.5230  234.5530 C   0  0  0  0  0  0  0  0  0  0  0  0
  130.1950  217.6540  235.0100 O   0  0  0  0  0  0  0  0  0  0  0  0
  128.1400  215.6650  233.8080 C   0  0  2  0  0  0  0  0  0  0  0  0
  127.1650  214.5170  233.9840 C   0  0  0  0  0  0  0  0  0  0  0  0
  128.5770  215.7530  232.3630 C   0  0  0  0  0  0  0  0  0  0  0  0
  125.8730  214.7360  233.3130 C   0  0  0  0  0  0  0  0  0  0  0  0
  127.1650  228.6230  230.3680 N   0  0  0  0  0  0  0  0  0  0  0  0
  125.9870  227.7800  230.4380 C   0  0  2  0  0  0  0  0  0  0  0  0
  125.6560  227.4040  231.8670 C   0  0  0  0  0  0  0  0  0  0  0  0
  124.4800  227.2630  232.2070 O   0  0  0  0  0  0  0  0  0  0  0  0
  126.1960  226.5000  229.6130 C   0  0  0  0  0  0  0  0  0  0  0  0
  124.9910  225.6090  229.4760 C   0  0  0  0  0  0  0  0  0  0  0  0
  125.3230  224.4260  228.6130 C   0  0  0  0  0  0  0  0  0  0  0  0
  124.1390  223.5010  228.4730 C   0  0  0  0  0  0  0  0  0  0  0  0
  124.4830  222.3310  227.6280 N   0  0  0  0  0  0  0  0  0  0  0  0
  119.7840  220.4550  237.0990 N   0  0  0  0  0  0  0  0  0  0  0  0
  119.2850  219.9020  235.8170 C   0  0  2  0  0  0  0  0  0  0  0  0
  119.0480  218.3790  235.8550 C   0  0  0  0  0  0  0  0  0  0  0  0
  119.7480  217.5950  235.2170 O   0  0  0  0  0  0  0  0  0  0  0  0
  120.2380  220.3310  234.6930 C   0  0  0  0  0  0  0  0  0  0  0  0
  119.7170  220.1660  233.2710 C   0  0  0  0  0  0  0  0  0  0  0  0
  120.6110  220.8450  232.2580 C   0  0  0  0  0  0  0  0  0  0  0  0
  121.5880  221.4930  232.6870 O   0  0  0  0  0  0  0  0  0  0  0  0
  120.3460  220.7260  231.0440 O   0  0  0  0  0  0  0  0  0  0  0  0
  118.0470  217.9810  236.6460 N   0  0  0  0  0  0  0  0  0  0  0  0
  117.8500  216.5840  237.0430 C   0  0  2  0  0  0  0  0  0  0  0  0
  117.4480  215.6720  235.8730 C   0  0  0  0  0  0  0  0  0  0  0  0
  117.2360  216.1020  234.7350 O   0  0  0  0  0  0  0  0  0  0  0  0
  116.8010  216.4980  238.1470 C   0  0  0  0  0  0  0  0  0  0  0  0
  117.3230  214.3910  236.1960 N   0  0  0  0  0  0  0  0  0  0  0  0
  116.9140  213.3500  235.2530 C   0  0  2  0  0  0  0  0  0  0  0  0
  115.4370  213.0560  235.4630 C   0  0  0  0  0  0  0  0  0  0  0  0
  115.0330  212.7780  236.6000 O   0  0  0  0  0  0  0  0  0  0  0  0
  117.7270  212.0540  235.4310 C   0  0  2  0  0  0  0  0  0  0  0  0
  119.2160  212.2950  235.1990 C   0  0  0  0  0  0  0  0  0  0  0  0
  117.1840  210.9490  234.5150 C   0  0  0  0  0  0  0  0  0  0  0  0
  120.0240  212.5090  236.4850 C   0  0  0  0  0  0  0  0  0  0  0  0
  114.6150  213.1130  234.4250 N   0  0  0  0  0  0  0  0  0  0  0  0
  113.2080  212.7490  234.5750 C   0  0  2  0  0  0  0  0  0  0  0  0
  113.0190  211.2700  234.8730 C   0  0  0  0  0  0  0  0  0  0  0  0
  113.8630  210.4210  234.5690 O   0  0  0  0  0  0  0  0  0  0  0  0
  112.6070  213.1170  233.2180 C   0  0  0  0  0  0  0  0  0  0  0  0
  113.7660  213.1470  232.2840 C   0  0  0  0  0  0  0  0  0  0  0  0
  114.9050  213.6520  233.0920 C   0  0  0  0  0  0  0  0  0  0  0  0
  111.1310  208.9210  233.7390 N   0  0  0  0  0  0  0  0  0  0  0  0
  111.0750  207.8820  232.7160 C   0  0  2  0  0  0  0  0  0  0  0  0
  112.4190  207.1800  232.5860 C   0  0  0  0  0  0  0  0  0  0  0  0
  112.4800  205.9480  232.5390 O   0  0  0  0  0  0  0  0  0  0  0  0
  110.5800  208.4560  231.3750 C   0  0  0  0  0  0  0  0  0  0  0  0
  111.4280  209.5230  230.6690 C   0  0  0  0  0  0  0  0  0  0  0  0
  110.8020  209.9980  229.3540 C   0  0  0  0  0  0  0  0  0  0  0  0
  109.6740  209.5710  229.0410 O   0  0  0  0  0  0  0  0  0  0  0  0
  111.4250  210.8170  228.6440 O   0  0  0  0  0  0  0  0  0  0  0  0
  113.5060  207.9270  232.7040 N   0  0  0  0  0  0  0  0  0  0  0  0
  114.8110  207.3260  232.5360 C   0  0  2  0  0  0  0  0  0  0  0  0
  115.2780  206.7220  233.8480 C   0  0  0  0  0  0  0  0  0  0  0  0
  115.9640  205.6940  233.8510 O   0  0  0  0  0  0  0  0  0  0  0  0
  115.7550  208.4240  232.0320 C   0  0  0  0  0  0  0  0  0  0  0  0
  117.0920  207.8820  231.7140 C   0  0  0  0  0  0  0  0  0  0  0  0
  115.1480  209.1290  230.8410 C   0  0  0  0  0  0  0  0  0  0  0  0
  113.4770  203.5610  233.8040 N   0  0  0  0  0  0  0  0  0  0  0  0
  114.0960  202.7090  232.8010 C   0  0  2  0  0  0  0  0  0  0  0  0
  115.3580  202.0800  233.3520 C   0  0  0  0  0  0  0  0  0  0  0  0
  115.6870  200.9380  233.0250 O   0  0  0  0  0  0  0  0  0  0  0  0
  114.4160  203.4970  231.5270 C   0  0  0  0  0  0  0  0  0  0  0  0
  114.8330  202.5930  230.3440 C   0  0  0  0  0  0  0  0  0  0  0  0
  115.0580  203.3180  229.0090 C   0  0  0  0  0  0  0  0  0  0  0  0
  113.7830  203.8260  228.3600 C   0  0  0  0  0  0  0  0  0  0  0  0
  112.9150  202.6940  227.9240 N   0  0  0  0  0  0  0  0  0  0  0  0
  116.0280  202.7870  234.2410 N   0  0  0  0  0  0  0  0  0  0  0  0
  117.0730  202.1670  235.0360 C   0  0  2  0  0  0  0  0  0  0  0  0
  116.5100  201.1310  235.9930 C   0  0  0  0  0  0  0  0  0  0  0  0
  117.1280  200.0860  236.2230 O   0  0  0  0  0  0  0  0  0  0  0  0
  117.8070  203.2640  235.7720 C   0  0  0  0  0  0  0  0  0  0  0  0
  118.4950  204.1620  234.8400 C   0  0  0  0  0  0  0  0  0  0  0  0
  118.8690  203.8820  233.5600 C   0  0  0  0  0  0  0  0  0  0  0  0
  118.7630  205.5420  235.0370 C   0  0  0  0  0  0  0  0  0  0  0  0
  119.4490  204.9770  232.9830 N   0  0  0  0  0  0  0  0  0  0  0  0
  119.3780  206.0190  233.8660 C   0  0  0  0  0  0  0  0  0  0  0  0
  118.5700  206.4200  236.1010 C   0  0  0  0  0  0  0  0  0  0  0  0
  119.8240  207.3220  233.7430 C   0  0  0  0  0  0  0  0  0  0  0  0
  119.0010  207.7130  235.9660 C   0  0  0  0  0  0  0  0  0  0  0  0
  119.6020  208.1600  234.7930 C   0  0  0  0  0  0  0  0  0  0  0  0
  2  1  1  0
  3  2  1  0
  4  3  2  0
  2  5  1  6
  7  6  1  1
  8  7  1  0
  9  8  2  0
 10  7  1  0
 11 10  1  0
 12 11  1  0
 13 12  1  0
 14 13  1  0
 16 15  1  6
 17 16  1  0
 18 17  2  0
 19 16  1  0
 20 19  1  0
 21 20  1  0
 22 20  1  0
 23 17  1  0
 24 23  1  0
 25 24  1  0
 26 25  2  0
 24 27  1  6
 28 27  1  0
 29 28  1  0
 30 28  1  0
 31 25  1  0
 32 31  1  0
 33 32  1  0
 34 33  2  0
 32 35  1  6
 36 35  1  0
 37 36  1  0
 38 36  2  0
 39 37  2  0
 40 38  1  0
 40 39  1  0
 41 33  1  0
 42 41  1  6
 43 42  1  0
 44 43  2  0
 45 42  1  0
 46 45  1  0
 47 45  1  0
 48 43  1  0
 49 48  1  0
 50 49  1  0
 51 50  2  0
 49 52  1  6
 53 52  1  0
 54 53  1  0
 55 54  2  0
 56 54  1  0
 58 57  1  1
 59 58  1  0
 60 59  2  0
 61 58  1  0
 62 61  1  0
 61 63  1  6
 64 62  1  0
 66 65  1  1
 67 66  1  0
 68 67  2  0
 69 66  1  0
 70 69  1  0
 71 70  1  0
 72 71  1  0
 73 72  1  0
 75 74  1  1
 76 75  1  0
 77 76  2  0
 78 75  1  0
 79 78  1  0
 80 79  1  0
 81 80  2  0
 82 80  1  0
 83 76  1  0
 84 83  1  0
 85 84  1  0
 86 85  2  0
 84 87  1  1
 88 85  1  0
 89 88  1  1
 90 89  1  0
 91 90  2  0
 92 89  1  0
 93 92  1  0
 92 94  1  6
 95 93  1  0
 96 90  1  0
 97 96  1  0
 97 98  1  6
 99 98  2  0
100 97  1  0
101100  1  0
102101  1  0
102 96  1  0
104103  1  1
105104  1  0
106105  2  0
107104  1  0
108107  1  0
109108  1  0
110109  2  0
111109  1  0
112105  1  0
113112  1  1
114113  1  0
115114  2  0
116113  1  0
117116  1  0
118116  1  0
120119  1  1
121120  1  0
122121  2  0
123120  1  0
124123  1  0
125124  1  0
126125  1  0
127126  1  0
128121  1  0
129128  1  0
130129  1  0
131130  2  0
129132  1  1
133132  1  0
134133  2  0
135133  1  0
136134  1  0
137136  1  0
137135  2  0
138135  1  0
139137  1  0
140138  2  0
141139  2  0
141140  1  0
M  END
$$$$
