
     RDKit          3D

119116  0  0  0  0  0  0  0  0999 V2000
  -23.1610  -11.0950  -49.6200 N   0  0  0  0  0  0  0  0  0  0  0  0
  -24.0370  -12.1040  -49.0350 C   0  0  2  0  0  0  0  0  0  0  0  0
  -25.4810  -11.9930  -49.5190 C   0  0  0  0  0  0  0  0  0  0  0  0
  -26.0870  -13.0000  -49.9020 O   0  0  0  0  0  0  0  0  0  0  0  0
  -23.9880  -12.0150  -47.5060 C   0  0  0  0  0  0  0  0  0  0  0  0
  -23.8790  -10.6690  -47.0760 O   0  0  0  0  0  0  0  0  0  0  0  0
  -26.0520  -10.7890  -49.4990 N   0  0  0  0  0  0  0  0  0  0  0  0
  -27.4430  -10.6250  -49.8660 C   0  0  0  0  0  0  0  0  0  0  0  0
  -27.6960   -9.2710  -50.4900 C   0  0  0  0  0  0  0  0  0  0  0  0
  -26.7930   -8.4400  -50.6110 O   0  0  0  0  0  0  0  0  0  0  0  0
  -28.9450   -9.0580  -50.8950 N   0  0  0  0  0  0  0  0  0  0  0  0
  -29.3670   -7.7860  -51.4470 C   0  0  0  0  0  0  0  0  0  0  0  0
  -29.5140   -7.8210  -52.9570 C   0  0  0  0  0  0  0  0  0  0  0  0
  -29.3500   -8.8490  -53.6210 O   0  0  0  0  0  0  0  0  0  0  0  0
  -29.8150   -6.6440  -53.4970 N   0  0  0  0  0  0  0  0  0  0  0  0
  -30.1690   -6.4870  -54.8970 C   0  0  2  0  0  0  0  0  0  0  0  0
  -28.9210   -6.4870  -55.7810 C   0  0  0  0  0  0  0  0  0  0  0  0
  -27.7860   -6.3670  -55.3080 O   0  0  0  0  0  0  0  0  0  0  0  0
  -30.9750   -5.2050  -55.0840 C   0  0  0  0  0  0  0  0  0  0  0  0
  -32.2750   -5.2200  -54.2960 C   0  0  0  0  0  0  0  0  0  0  0  0
  -32.9860   -4.1880  -54.2960 O   0  0  0  0  0  0  0  0  0  0  0  0
  -32.5870   -6.2670  -53.6800 O   0  0  0  0  0  0  0  0  0  0  0  0
  -27.3540   -4.5400  -57.7320 N   0  0  0  0  0  0  0  0  0  0  0  0
  -26.3700   -3.4670  -57.7840 C   0  0  2  0  0  0  0  0  0  0  0  0
  -25.3420   -3.5690  -56.6630 C   0  0  0  0  0  0  0  0  0  0  0  0
  -24.2610   -2.9830  -56.7810 O   0  0  0  0  0  0  0  0  0  0  0  0
  -27.0680   -2.0990  -57.7550 C   0  0  0  0  0  0  0  0  0  0  0  0
  -28.1850   -1.9380  -58.8020 C   0  0  0  0  0  0  0  0  0  0  0  0
  -29.4750   -2.6270  -58.3920 C   0  0  0  0  0  0  0  0  0  0  0  0
  -29.8440   -2.5390  -57.2020 O   0  0  0  0  0  0  0  0  0  0  0  0
  -30.1070   -3.2740  -59.2510 O   0  0  0  0  0  0  0  0  0  0  0  0
  -25.6410   -4.3020  -55.5930 N   0  0  0  0  0  0  0  0  0  0  0  0
  -24.6410   -4.6040  -54.5700 C   0  0  2  0  0  0  0  0  0  0  0  0
  -23.9110   -5.8990  -54.8780 C   0  0  0  0  0  0  0  0  0  0  0  0
  -22.6780   -5.9480  -54.8550 O   0  0  0  0  0  0  0  0  0  0  0  0
  -25.2920   -4.6780  -53.1770 C   0  0  2  0  0  0  0  0  0  0  0  0
  -26.1270   -3.4370  -52.9020 C   0  0  0  0  0  0  0  0  0  0  0  0
  -24.2290   -4.8840  -52.1050 C   0  0  0  0  0  0  0  0  0  0  0  0
  -27.4550   -3.7800  -52.3180 C   0  0  0  0  0  0  0  0  0  0  0  0
  -30.1930    4.3290  -58.0920 N   0  0  0  0  0  0  0  0  0  0  0  0
  -29.2980    4.4160  -56.9420 C   0  0  2  0  0  0  0  0  0  0  0  0
  -29.6210    5.5920  -56.0330 C   0  0  0  0  0  0  0  0  0  0  0  0
  -29.0440    5.6860  -54.9440 O   0  0  0  0  0  0  0  0  0  0  0  0
  -27.8330    4.4920  -57.4010 C   0  0  0  0  0  0  0  0  0  0  0  0
  -27.4530    5.7290  -58.1830 C   0  0  0  0  0  0  0  0  0  0  0  0
  -27.3550    5.8450  -59.5430 C   0  0  0  0  0  0  0  0  0  0  0  0
  -27.0940    7.0090  -57.6470 C   0  0  0  0  0  0  0  0  0  0  0  0
  -26.9700    7.1210  -59.8850 N   0  0  0  0  0  0  0  0  0  0  0  0
  -26.8060    7.8550  -58.7400 C   0  0  0  0  0  0  0  0  0  0  0  0
  -26.9960    7.5250  -56.3510 C   0  0  0  0  0  0  0  0  0  0  0  0
  -26.4270    9.1820  -58.5740 C   0  0  0  0  0  0  0  0  0  0  0  0
  -26.6220    8.8420  -56.1880 C   0  0  0  0  0  0  0  0  0  0  0  0
  -26.3410    9.6570  -57.2940 C   0  0  0  0  0  0  0  0  0  0  0  0
  -30.5240    6.4800  -56.4470 N   0  0  0  0  0  0  0  0  0  0  0  0
  -31.0120    7.5640  -55.6040 C   0  0  2  0  0  0  0  0  0  0  0  0
  -32.0430    7.0930  -54.5820 C   0  0  0  0  0  0  0  0  0  0  0  0
  -32.7490    7.9310  -54.0080 O   0  0  0  0  0  0  0  0  0  0  0  0
  -31.6110    8.6720  -56.4780 C   0  0  0  0  0  0  0  0  0  0  0  0
  -30.7510    9.0650  -57.6840 C   0  0  0  0  0  0  0  0  0  0  0  0
  -31.0400    8.2290  -58.9220 C   0  0  0  0  0  0  0  0  0  0  0  0
  -32.0760    8.3850  -59.5650 O   0  0  0  0  0  0  0  0  0  0  0  0
  -30.1220    7.3310  -59.2540 N   0  0  0  0  0  0  0  0  0  0  0  0
  -32.1380    5.7800  -54.3440 N   0  0  0  0  0  0  0  0  0  0  0  0
  -33.1610    5.1900  -53.5000 C   0  0  0  0  0  0  0  0  0  0  0  0
  -34.5740    5.3640  -54.0060 C   0  0  0  0  0  0  0  0  0  0  0  0
  -35.5170    4.9220  -53.3370 O   0  0  0  0  0  0  0  0  0  0  0  0
  -16.7330   -4.4520  -46.9520 N   0  0  0  0  0  0  0  0  0  0  0  0
  -17.4900   -4.5500  -45.7150 C   0  0  2  0  0  0  0  0  0  0  0  0
  -17.0370   -5.8160  -45.0040 C   0  0  0  0  0  0  0  0  0  0  0  0
  -17.0000   -6.8950  -45.6100 O   0  0  0  0  0  0  0  0  0  0  0  0
  -19.0030   -4.5780  -45.9720 C   0  0  2  0  0  0  0  0  0  0  0  0
  -19.3360   -3.6100  -46.9760 O   0  0  0  0  0  0  0  0  0  0  0  0
  -19.7690   -4.2500  -44.6940 C   0  0  0  0  0  0  0  0  0  0  0  0
  -17.0800   -8.8600  -42.2910 N   0  0  0  0  0  0  0  0  0  0  0  0
  -18.0880   -9.6990  -41.6590 C   0  0  2  0  0  0  0  0  0  0  0  0
  -18.0550   -9.5060  -40.1470 C   0  0  0  0  0  0  0  0  0  0  0  0
  -17.0300   -9.7510  -39.5000 O   0  0  0  0  0  0  0  0  0  0  0  0
  -17.8670  -11.1650  -42.0210 C   0  0  0  0  0  0  0  0  0  0  0  0
  -18.8440  -11.6600  -43.0750 C   0  0  0  0  0  0  0  0  0  0  0  0
  -19.6650  -10.8540  -43.5670 O   0  0  0  0  0  0  0  0  0  0  0  0
  -18.7950  -12.8640  -43.4100 O   0  0  0  0  0  0  0  0  0  0  0  0
  -16.1040   -8.5630  -47.8810 N   0  0  0  0  0  0  0  0  0  0  0  0
  -16.8630   -8.6680  -49.1210 C   0  0  2  0  0  0  0  0  0  0  0  0
  -16.9530   -7.3200  -49.8260 C   0  0  0  0  0  0  0  0  0  0  0  0
  -17.0420   -6.2760  -49.1720 O   0  0  0  0  0  0  0  0  0  0  0  0
  -18.2870   -9.1930  -48.8980 C   0  0  0  0  0  0  0  0  0  0  0  0
  -18.5080  -10.0470  -47.6660 C   0  0  0  0  0  0  0  0  0  0  0  0
  -19.9080  -10.6330  -47.7440 C   0  0  0  0  0  0  0  0  0  0  0  0
  -20.3730  -11.2360  -46.4990 N   0  0  0  0  0  0  0  0  0  0  0  0
  -20.2680  -12.5300  -46.2120 C   0  0  0  0  0  0  0  0  0  0  0  0
  -19.6940  -13.3590  -47.0740 N   0  0  0  0  0  0  0  0  0  0  0  0
  -20.7350  -12.9970  -45.0610 N   0  0  0  0  0  0  0  0  0  0  0  0
  -16.9590   -7.3110  -51.1580 N   0  0  0  0  0  0  0  0  0  0  0  0
  -17.0150   -6.0370  -51.8810 C   0  0  2  0  0  0  0  0  0  0  0  0
  -18.3980   -5.4160  -51.8030 C   0  0  0  0  0  0  0  0  0  0  0  0
  -19.4180   -6.1080  -51.7480 O   0  0  0  0  0  0  0  0  0  0  0  0
  -16.6670   -6.4330  -53.3170 C   0  0  0  0  0  0  0  0  0  0  0  0
  -17.1830   -7.8210  -53.4260 C   0  0  0  0  0  0  0  0  0  0  0  0
  -16.9520   -8.4600  -52.0790 C   0  0  0  0  0  0  0  0  0  0  0  0
  -18.4190   -4.0880  -51.8050 N   0  0  0  0  0  0  0  0  0  0  0  0
  -19.6630   -3.3550  -51.7040 C   0  0  0  0  0  0  0  0  0  0  0  0
  -19.7840   -2.6390  -50.3780 C   0  0  0  0  0  0  0  0  0  0  0  0
  -19.7080   -3.2610  -49.3140 O   0  0  0  0  0  0  0  0  0  0  0  0
  -19.9730   -1.3270  -50.4270 N   0  0  0  0  0  0  0  0  0  0  0  0
  -20.0590   -0.5550  -49.2090 C   0  0  0  0  0  0  0  0  0  0  0  0
  -21.0990    0.5430  -49.2410 C   0  0  0  0  0  0  0  0  0  0  0  0
  -20.7940    1.6920  -49.5730 O   0  0  0  0  0  0  0  0  0  0  0  0
  -22.3370    0.1940  -48.9060 N   0  0  0  0  0  0  0  0  0  0  0  0
  -23.3500    1.2130  -48.7020 C   0  0  0  0  0  0  0  0  0  0  0  0
  -23.7280    1.9170  -49.9880 C   0  0  0  0  0  0  0  0  0  0  0  0
  -23.8870    1.3020  -51.0480 O   0  0  0  0  0  0  0  0  0  0  0  0
  -23.8560    3.2350  -49.8950 N   0  0  0  0  0  0  0  0  0  0  0  0
  -24.4300    4.0440  -50.9540 C   0  0  2  0  0  0  0  0  0  0  0  0
  -23.3810    4.9910  -51.5240 C   0  0  0  0  0  0  0  0  0  0  0  0
  -22.4260    5.3760  -50.8400 O   0  0  0  0  0  0  0  0  0  0  0  0
  -25.6480    4.8000  -50.4250 C   0  0  0  0  0  0  0  0  0  0  0  0
  -26.5160    3.9240  -49.5260 C   0  0  0  0  0  0  0  0  0  0  0  0
  -26.3330    3.8970  -48.3090 O   0  0  0  0  0  0  0  0  0  0  0  0
  -27.4810    3.2240  -50.1220 N   0  0  0  0  0  0  0  0  0  0  0  0
  2  1  1  6
  3  2  1  0
  4  3  2  0
  5  2  1  0
  6  5  1  0
  7  3  1  0
  8  7  1  0
  9  8  1  0
 10  9  2  0
 11  9  1  0
 12 11  1  0
 13 12  1  0
 14 13  2  0
 15 13  1  0
 16 15  1  0
 17 16  1  0
 18 17  2  0
 16 19  1  1
 20 19  1  0
 21 20  2  0
 22 20  1  0
 24 23  1  1
 25 24  1  0
 26 25  2  0
 27 24  1  0
 28 27  1  0
 29 28  1  0
 30 29  2  0
 31 29  1  0
 32 25  1  0
 33 32  1  6
 34 33  1  0
 35 34  2  0
 36 33  1  0
 37 36  1  0
 36 38  1  1
 39 37  1  0
 41 40  1  6
 42 41  1  0
 43 42  2  0
 44 41  1  0
 45 44  1  0
 46 45  2  0
 47 45  1  0
 48 46  1  0
 49 48  1  0
 49 47  2  0
 50 47  1  0
 51 49  1  0
 52 50  2  0
 53 52  1  0
 53 51  2  0
 54 42  1  0
 55 54  1  0
 56 55  1  0
 57 56  2  0
 55 58  1  6
 59 58  1  0
 60 59  1  0
 61 60  2  0
 62 60  1  0
 63 56  1  0
 64 63  1  0
 65 64  1  0
 66 65  2  0
 68 67  1  6
 69 68  1  0
 70 69  2  0
 71 68  1  0
 72 71  1  0
 71 73  1  1
 75 74  1  6
 76 75  1  0
 77 76  2  0
 78 75  1  0
 79 78  1  0
 80 79  2  0
 81 79  1  0
 83 82  1  1
 84 83  1  0
 85 84  2  0
 86 83  1  0
 87 86  1  0
 88 87  1  0
 89 88  1  0
 90 89  1  0
 91 90  1  0
 92 90  2  0
 93 84  1  0
 94 93  1  0
 94 95  1  6
 96 95  2  0
 97 94  1  0
 98 97  1  0
 99 98  1  0
 99 93  1  0
100 95  1  0
101100  1  0
102101  1  0
103102  2  0
104102  1  0
105104  1  0
106105  1  0
107106  2  0
108106  1  0
109108  1  0
110109  1  0
111110  2  0
112110  1  0
113112  1  0
114113  1  0
115114  2  0
113116  1  1
117116  1  0
118117  2  0
119117  1  0
M  END
$$$$
