
     RDKit          3D

141136  0  0  0  0  0  0  0  0999 V2000
  163.3210  142.1560  167.9200 N   0  0  0  0  0  0  0  0  0  0  0  0
  163.3620  143.0440  169.0660 C   0  0  2  0  0  0  0  0  0  0  0  0
  164.7210  143.1010  169.7430 C   0  0  0  0  0  0  0  0  0  0  0  0
  165.5550  142.2080  169.5920 O   0  0  0  0  0  0  0  0  0  0  0  0
  162.3370  142.5630  170.0960 C   0  0  0  0  0  0  0  0  0  0  0  0
  161.9240  143.2810  171.3740 C   0  0  0  0  0  0  0  0  0  0  0  0
  160.4790  142.9760  171.6300 C   0  0  0  0  0  0  0  0  0  0  0  0
  162.7280  142.7790  172.5440 C   0  0  0  0  0  0  0  0  0  0  0  0
  166.6370  144.7820  173.4520 N   0  0  0  0  0  0  0  0  0  0  0  0
  166.4460  145.2850  174.8100 C   0  0  2  0  0  0  0  0  0  0  0  0
  167.7190  145.9720  175.2780 C   0  0  0  0  0  0  0  0  0  0  0  0
  168.7240  145.3010  175.5330 O   0  0  0  0  0  0  0  0  0  0  0  0
  166.0870  144.1460  175.7530 C   0  0  0  0  0  0  0  0  0  0  0  0
  164.7540  143.5250  175.4910 C   0  0  0  0  0  0  0  0  0  0  0  0
  164.4200  142.5780  176.6050 C   0  0  0  0  0  0  0  0  0  0  0  0
  165.3440  141.3820  176.5420 C   0  0  0  0  0  0  0  0  0  0  0  0
  164.9850  140.3620  177.5610 N   0  0  0  0  0  0  0  0  0  0  0  0
  155.6640  152.4410  179.3320 N   0  0  0  0  0  0  0  0  0  0  0  0
  156.5370  151.3010  179.5420 C   0  0  2  0  0  0  0  0  0  0  0  0
  155.7880  149.9780  179.5270 C   0  0  0  0  0  0  0  0  0  0  0  0
  156.3400  148.9590  179.1020 O   0  0  0  0  0  0  0  0  0  0  0  0
  157.2200  151.4820  180.8910 C   0  0  0  0  0  0  0  0  0  0  0  0
  158.2690  150.5200  181.4020 C   0  0  0  0  0  0  0  0  0  0  0  0
  159.4470  150.5030  180.4650 C   0  0  0  0  0  0  0  0  0  0  0  0
  158.6760  150.9710  182.7910 C   0  0  0  0  0  0  0  0  0  0  0  0
  154.5450  149.9700  179.9730 N   0  0  0  0  0  0  0  0  0  0  0  0
  153.8050  148.7230  180.0640 C   0  0  2  0  0  0  0  0  0  0  0  0
  152.9550  148.4010  178.8500 C   0  0  0  0  0  0  0  0  0  0  0  0
  152.5670  147.2420  178.6730 O   0  0  0  0  0  0  0  0  0  0  0  0
  152.8970  148.7940  181.2820 C   0  0  0  0  0  0  0  0  0  0  0  0
  153.7270  149.1010  182.5210 C   0  0  0  0  0  0  0  0  0  0  0  0
  152.8200  149.2640  183.7210 C   0  0  0  0  0  0  0  0  0  0  0  0
  154.8130  148.0590  182.7580 C   0  0  0  0  0  0  0  0  0  0  0  0
  152.6720  149.3910  178.0100 N   0  0  0  0  0  0  0  0  0  0  0  0
  151.6590  149.2710  176.9690 C   0  0  2  0  0  0  0  0  0  0  0  0
  152.2400  149.3670  175.5690 C   0  0  0  0  0  0  0  0  0  0  0  0
  151.5470  149.8030  174.6440 O   0  0  0  0  0  0  0  0  0  0  0  0
  150.5940  150.3200  177.2380 C   0  0  0  0  0  0  0  0  0  0  0  0
  149.9600  150.1360  178.5820 C   0  0  0  0  0  0  0  0  0  0  0  0
  150.4990  150.6830  179.7270 N   0  0  0  0  0  0  0  0  0  0  0  0
  148.9090  149.3860  178.9860 C   0  0  0  0  0  0  0  0  0  0  0  0
  149.7720  150.3270  180.7700 C   0  0  0  0  0  0  0  0  0  0  0  0
  148.8030  149.5360  180.3480 N   0  0  0  0  0  0  0  0  0  0  0  0
  153.5340  149.0670  175.4670 N   0  0  0  0  0  0  0  0  0  0  0  0
  154.3580  149.2310  174.2710 C   0  0  2  0  0  0  0  0  0  0  0  0
  153.6880  148.6590  173.0300 C   0  0  0  0  0  0  0  0  0  0  0  0
  153.6640  149.2830  171.9700 O   0  0  0  0  0  0  0  0  0  0  0  0
  155.7170  148.5590  174.5090 C   0  0  0  0  0  0  0  0  0  0  0  0
  156.5870  148.6620  173.2820 C   0  0  0  0  0  0  0  0  0  0  0  0
  156.3780  149.1380  175.7450 C   0  0  0  0  0  0  0  0  0  0  0  0
  153.1590  147.4520  173.1460 N   0  0  0  0  0  0  0  0  0  0  0  0
  152.4860  146.8170  172.0240 C   0  0  2  0  0  0  0  0  0  0  0  0
  151.2550  147.6030  171.6160 C   0  0  0  0  0  0  0  0  0  0  0  0
  150.9660  147.7510  170.4270 O   0  0  0  0  0  0  0  0  0  0  0  0
  152.0950  145.4060  172.4340 C   0  0  0  0  0  0  0  0  0  0  0  0
  153.2570  144.4750  172.7140 C   0  0  0  0  0  0  0  0  0  0  0  0
  153.7690  144.6140  174.1470 C   0  0  0  0  0  0  0  0  0  0  0  0
  153.1960  145.4350  174.9000 O   0  0  0  0  0  0  0  0  0  0  0  0
  154.7280  143.9120  174.5190 O   0  0  0  0  0  0  0  0  0  0  0  0
  164.2310  148.4340  172.3670 N   0  0  0  0  0  0  0  0  0  0  0  0
  163.7000  148.8710  173.6560 C   0  0  2  0  0  0  0  0  0  0  0  0
  164.8480  149.3300  174.5380 C   0  0  0  0  0  0  0  0  0  0  0  0
  165.7820  148.5630  174.7680 O   0  0  0  0  0  0  0  0  0  0  0  0
  162.9410  147.7210  174.3360 C   0  0  2  0  0  0  0  0  0  0  0  0
  161.7780  147.2670  173.4590 C   0  0  0  0  0  0  0  0  0  0  0  0
  162.4570  148.1270  175.7150 C   0  0  0  0  0  0  0  0  0  0  0  0
  161.1440  145.9790  173.9360 C   0  0  0  0  0  0  0  0  0  0  0  0
  166.8210  146.3330  182.9630 N   0  0  0  0  0  0  0  0  0  0  0  0
  167.2330  145.1000  182.3070 C   0  0  2  0  0  0  0  0  0  0  0  0
  168.4280  144.5700  183.0810 C   0  0  0  0  0  0  0  0  0  0  0  0
  169.5440  145.0680  182.9270 O   0  0  0  0  0  0  0  0  0  0  0  0
  167.6120  145.3710  180.8570 C   0  0  0  0  0  0  0  0  0  0  0  0
  166.4720  145.7690  179.9710 C   0  0  0  0  0  0  0  0  0  0  0  0
  165.1680  145.4350  180.2840 C   0  0  0  0  0  0  0  0  0  0  0  0
  166.7190  146.4690  178.8020 C   0  0  0  0  0  0  0  0  0  0  0  0
  164.1330  145.7950  179.4460 C   0  0  0  0  0  0  0  0  0  0  0  0
  165.6920  146.8480  177.9750 C   0  0  0  0  0  0  0  0  0  0  0  0
  164.4000  146.4840  178.2800 C   0  0  0  0  0  0  0  0  0  0  0  0
  167.9230  139.4150  171.8520 N   0  0  0  0  0  0  0  0  0  0  0  0
  166.9930  139.4230  170.7250 C   0  0  2  0  0  0  0  0  0  0  0  0
  165.5440  139.1330  171.1160 C   0  0  0  0  0  0  0  0  0  0  0  0
  164.7030  140.0310  171.0550 O   0  0  0  0  0  0  0  0  0  0  0  0
  167.4310  138.3770  169.7030 C   0  0  0  0  0  0  0  0  0  0  0  0
  166.9590  138.6130  168.3040 C   0  0  0  0  0  0  0  0  0  0  0  0
  167.6700  139.7800  167.6590 C   0  0  0  0  0  0  0  0  0  0  0  0
  167.0660  140.6060  166.9910 O   0  0  0  0  0  0  0  0  0  0  0  0
  168.9770  139.8240  167.8460 N   0  0  0  0  0  0  0  0  0  0  0  0
  165.2750  137.9250  171.6340 N   0  0  0  0  0  0  0  0  0  0  0  0
  164.0220  137.5030  172.3000 C   0  0  2  0  0  0  0  0  0  0  0  0
  162.7720  137.8720  171.4780 C   0  0  0  0  0  0  0  0  0  0  0  0
  161.9250  138.6720  171.8830 O   0  0  0  0  0  0  0  0  0  0  0  0
  163.9460  138.0480  173.7290 C   0  0  0  0  0  0  0  0  0  0  0  0
  162.9340  137.3010  174.5990 C   0  0  0  0  0  0  0  0  0  0  0  0
  163.0710  137.6030  176.0830 C   0  0  0  0  0  0  0  0  0  0  0  0
  163.9030  138.4550  176.4550 O   0  0  0  0  0  0  0  0  0  0  0  0
  162.3580  136.9630  176.8870 O   0  0  0  0  0  0  0  0  0  0  0  0
  162.7670  137.3370  170.2530 N   0  0  0  0  0  0  0  0  0  0  0  0
  161.7790  137.6090  169.2070 C   0  0  2  0  0  0  0  0  0  0  0  0
  160.3220  137.5220  169.6640 C   0  0  0  0  0  0  0  0  0  0  0  0
  159.9410  136.6460  170.4480 O   0  0  0  0  0  0  0  0  0  0  0  0
  162.0040  136.6500  168.0400 C   0  0  0  0  0  0  0  0  0  0  0  0
  159.5340  138.4860  169.1950 N   0  0  0  0  0  0  0  0  0  0  0  0
  158.1020  138.6210  169.4780 C   0  0  2  0  0  0  0  0  0  0  0  0
  157.3810  137.3900  168.9560 C   0  0  0  0  0  0  0  0  0  0  0  0
  157.6200  136.9840  167.8020 O   0  0  0  0  0  0  0  0  0  0  0  0
  157.5330  139.8750  168.7920 C   0  0  2  0  0  0  0  0  0  0  0  0
  158.2130  141.1550  169.2670 C   0  0  0  0  0  0  0  0  0  0  0  0
  156.0360  139.9740  168.9960 C   0  0  0  0  0  0  0  0  0  0  0  0
  159.2970  141.6640  168.3080 C   0  0  0  0  0  0  0  0  0  0  0  0
  156.5250  136.7380  169.7360 N   0  0  0  0  0  0  0  0  0  0  0  0
  155.7580  135.6200  169.1850 C   0  0  2  0  0  0  0  0  0  0  0  0
  154.7130  136.1010  168.1830 C   0  0  0  0  0  0  0  0  0  0  0  0
  154.3930  137.2850  168.0600 O   0  0  0  0  0  0  0  0  0  0  0  0
  155.1200  134.9870  170.4220 C   0  0  0  0  0  0  0  0  0  0  0  0
  155.0390  136.0960  171.4060 C   0  0  0  0  0  0  0  0  0  0  0  0
  156.2580  136.9390  171.1670 C   0  0  0  0  0  0  0  0  0  0  0  0
  151.4760  135.5840  167.8030 N   0  0  0  0  0  0  0  0  0  0  0  0
  150.1450  136.0010  168.2390 C   0  0  2  0  0  0  0  0  0  0  0  0
  149.9620  137.5070  168.0940 C   0  0  0  0  0  0  0  0  0  0  0  0
  148.9940  137.9650  167.4830 O   0  0  0  0  0  0  0  0  0  0  0  0
  149.8820  135.5340  169.6860 C   0  0  0  0  0  0  0  0  0  0  0  0
  150.9440  135.8520  170.7520 C   0  0  0  0  0  0  0  0  0  0  0  0
  150.5760  135.3520  172.1320 C   0  0  0  0  0  0  0  0  0  0  0  0
  149.5590  134.6570  172.2620 O   0  0  0  0  0  0  0  0  0  0  0  0
  151.2980  135.6710  173.0980 O   0  0  0  0  0  0  0  0  0  0  0  0
  150.8690  138.2820  168.6830 N   0  0  0  0  0  0  0  0  0  0  0  0
  150.8870  139.7320  168.5790 C   0  0  2  0  0  0  0  0  0  0  0  0
  151.0010  140.1960  167.1370 C   0  0  0  0  0  0  0  0  0  0  0  0
  150.3940  141.1950  166.7580 O   0  0  0  0  0  0  0  0  0  0  0  0
  152.0480  140.2620  169.4330 C   0  0  0  0  0  0  0  0  0  0  0  0
  151.9520  141.7540  169.6040 C   0  0  0  0  0  0  0  0  0  0  0  0
  152.0660  139.5540  170.7630 C   0  0  0  0  0  0  0  0  0  0  0  0
  147.7920  139.4770  165.4320 N   0  0  0  0  0  0  0  0  0  0  0  0
  146.9470  140.4050  166.1410 C   0  0  2  0  0  0  0  0  0  0  0  0
  147.1410  141.8210  165.6400 C   0  0  0  0  0  0  0  0  0  0  0  0
  146.2240  142.6390  165.7220 O   0  0  0  0  0  0  0  0  0  0  0  0
  147.3320  140.2940  167.6030 C   0  0  0  0  0  0  0  0  0  0  0  0
  146.4750  140.9490  168.6030 C   0  0  0  0  0  0  0  0  0  0  0  0
  147.0880  140.6120  169.9410 C   0  0  0  0  0  0  0  0  0  0  0  0
  146.8610  139.1450  170.2780 C   0  0  0  0  0  0  0  0  0  0  0  0
  145.4410  138.8300  170.5490 N   0  0  0  0  0  0  0  0  0  0  0  0
  2  1  1  6
  3  2  1  0
  4  3  2  0
  5  2  1  0
  6  5  1  0
  7  6  1  0
  8  6  1  0
 10  9  1  6
 11 10  1  0
 12 11  2  0
 13 10  1  0
 14 13  1  0
 15 14  1  0
 16 15  1  0
 17 16  1  0
 19 18  1  1
 20 19  1  0
 21 20  2  0
 22 19  1  0
 23 22  1  0
 24 23  1  0
 25 23  1  0
 26 20  1  0
 27 26  1  0
 28 27  1  0
 29 28  2  0
 27 30  1  1
 31 30  1  0
 32 31  1  0
 33 31  1  0
 34 28  1  0
 35 34  1  0
 36 35  1  0
 37 36  2  0
 35 38  1  1
 39 38  1  0
 40 39  1  0
 41 39  2  0
 42 40  2  0
 43 41  1  0
 43 42  1  0
 44 36  1  0
 45 44  1  1
 46 45  1  0
 47 46  2  0
 48 45  1  0
 49 48  1  0
 50 48  1  0
 51 46  1  0
 52 51  1  0
 53 52  1  0
 54 53  2  0
 52 55  1  1
 56 55  1  0
 57 56  1  0
 58 57  2  0
 59 57  1  0
 61 60  1  6
 62 61  1  0
 63 62  2  0
 64 61  1  0
 65 64  1  0
 64 66  1  1
 67 65  1  0
 69 68  1  1
 70 69  1  0
 71 70  2  0
 72 69  1  0
 73 72  1  0
 74 73  2  0
 75 73  1  0
 76 74  1  0
 77 75  2  0
 78 77  1  0
 78 76  2  0
 80 79  1  1
 81 80  1  0
 82 81  2  0
 83 80  1  0
 84 83  1  0
 85 84  1  0
 86 85  2  0
 87 85  1  0
 88 81  1  0
 89 88  1  0
 90 89  1  0
 91 90  2  0
 89 92  1  1
 93 92  1  0
 94 93  1  0
 95 94  2  0
 96 94  1  0
 97 90  1  0
 98 97  1  0
 99 98  1  0
100 99  2  0
 98101  1  6
102 99  1  0
103102  1  6
104103  1  0
105104  2  0
106103  1  0
107106  1  0
106108  1  1
109107  1  0
110104  1  0
111110  1  0
111112  1  6
113112  2  0
114111  1  0
115114  1  0
116115  1  0
116110  1  0
118117  1  1
119118  1  0
120119  2  0
121118  1  0
122121  1  0
123122  1  0
124123  2  0
125123  1  0
126119  1  0
127126  1  6
128127  1  0
129128  2  0
130127  1  0
131130  1  0
132130  1  0
134133  1  6
135134  1  0
136135  2  0
137134  1  0
138137  1  0
139138  1  0
140139  1  0
141140  1  0
M  END
$$$$
