
     RDKit          3D

138132  0  0  0  0  0  0  0  0999 V2000
  166.1510  144.1130  168.1420 N   0  0  0  0  0  0  0  0  0  0  0  0
  166.1480  145.0260  169.2590 C   0  0  2  0  0  0  0  0  0  0  0  0
  167.4970  144.9770  169.9480 C   0  0  0  0  0  0  0  0  0  0  0  0
  168.2510  144.0100  169.8180 O   0  0  0  0  0  0  0  0  0  0  0  0
  165.0430  144.6230  170.2360 C   0  0  0  0  0  0  0  0  0  0  0  0
  164.6090  145.4480  171.4390 C   0  0  0  0  0  0  0  0  0  0  0  0
  163.1310  145.2980  171.6260 C   0  0  0  0  0  0  0  0  0  0  0  0
  165.3250  144.9250  172.6730 C   0  0  0  0  0  0  0  0  0  0  0  0
  169.1530  146.5650  173.9400 N   0  0  0  0  0  0  0  0  0  0  0  0
  168.9390  147.2500  175.2090 C   0  0  2  0  0  0  0  0  0  0  0  0
  170.2960  147.7310  175.6940 C   0  0  0  0  0  0  0  0  0  0  0  0
  171.1400  146.9260  176.1000 O   0  0  0  0  0  0  0  0  0  0  0  0
  168.2280  146.3750  176.2300 C   0  0  0  0  0  0  0  0  0  0  0  0
  166.7840  146.1390  175.8660 C   0  0  0  0  0  0  0  0  0  0  0  0
  166.0060  145.4690  176.9810 C   0  0  0  0  0  0  0  0  0  0  0  0
  166.3410  144.0170  177.1650 C   0  0  0  0  0  0  0  0  0  0  0  0
  165.4210  143.4350  178.1840 N   0  0  0  0  0  0  0  0  0  0  0  0
  156.8030  154.7480  182.1970 N   0  0  0  0  0  0  0  0  0  0  0  0
  156.1450  153.6400  181.5360 C   0  0  2  0  0  0  0  0  0  0  0  0
  156.2600  153.7830  180.0400 C   0  0  0  0  0  0  0  0  0  0  0  0
  155.8760  152.8690  179.3120 O   0  0  0  0  0  0  0  0  0  0  0  0
  154.6710  153.5540  181.8960 C   0  0  0  0  0  0  0  0  0  0  0  0
  153.8880  154.7010  181.3240 C   0  0  0  0  0  0  0  0  0  0  0  0
  152.4110  154.6090  181.6220 C   0  0  0  0  0  0  0  0  0  0  0  0
  152.0070  153.6700  182.3350 O   0  0  0  0  0  0  0  0  0  0  0  0
  151.6530  155.4850  181.1560 O   0  0  0  0  0  0  0  0  0  0  0  0
  159.2740  153.8590  179.1290 N   0  0  0  0  0  0  0  0  0  0  0  0
  160.2800  152.8160  179.1580 C   0  0  2  0  0  0  0  0  0  0  0  0
  159.6380  151.4420  179.2940 C   0  0  0  0  0  0  0  0  0  0  0  0
  160.1840  150.4470  178.8110 O   0  0  0  0  0  0  0  0  0  0  0  0
  161.2310  153.0990  180.3160 C   0  0  0  0  0  0  0  0  0  0  0  0
  158.4960  151.3630  179.9530 N   0  0  0  0  0  0  0  0  0  0  0  0
  157.8820  150.0730  180.2070 C   0  0  2  0  0  0  0  0  0  0  0  0
  156.8670  149.6260  179.1710 C   0  0  0  0  0  0  0  0  0  0  0  0
  156.5360  148.4410  179.1310 O   0  0  0  0  0  0  0  0  0  0  0  0
  157.2250  150.0950  181.5690 C   0  0  0  0  0  0  0  0  0  0  0  0
  158.2360  150.4380  182.6430 C   0  0  0  0  0  0  0  0  0  0  0  0
  157.5530  150.5400  183.9790 C   0  0  0  0  0  0  0  0  0  0  0  0
  159.3630  149.4280  182.6620 C   0  0  0  0  0  0  0  0  0  0  0  0
  156.2900  150.5380  178.4020 N   0  0  0  0  0  0  0  0  0  0  0  0
  155.2450  150.1270  177.4710 C   0  0  2  0  0  0  0  0  0  0  0  0
  155.6310  150.5310  176.0510 C   0  0  0  0  0  0  0  0  0  0  0  0
  154.8870  151.2330  175.3600 O   0  0  0  0  0  0  0  0  0  0  0  0
  153.9360  150.7510  177.9400 C   0  0  0  0  0  0  0  0  0  0  0  0
  153.4710  150.2090  179.2580 C   0  0  0  0  0  0  0  0  0  0  0  0
  154.1200  150.4940  180.4400 N   0  0  0  0  0  0  0  0  0  0  0  0
  152.4430  149.3950  179.5860 C   0  0  0  0  0  0  0  0  0  0  0  0
  153.5150  149.8790  181.4370 C   0  0  0  0  0  0  0  0  0  0  0  0
  152.4970  149.1980  180.9450 N   0  0  0  0  0  0  0  0  0  0  0  0
  156.8010  150.0710  175.6200 N   0  0  0  0  0  0  0  0  0  0  0  0
  157.3870  150.4340  174.3310 C   0  0  2  0  0  0  0  0  0  0  0  0
  156.6280  149.8780  173.1250 C   0  0  0  0  0  0  0  0  0  0  0  0
  156.4950  150.5540  172.1000 O   0  0  0  0  0  0  0  0  0  0  0  0
  158.8370  149.9300  174.3570 C   0  0  0  0  0  0  0  0  0  0  0  0
  159.5490  150.2020  173.0710 C   0  0  0  0  0  0  0  0  0  0  0  0
  159.5630  150.5160  175.5490 C   0  0  0  0  0  0  0  0  0  0  0  0
  156.1740  148.6330  173.2100 N   0  0  0  0  0  0  0  0  0  0  0  0
  155.5050  147.9470  172.1040 C   0  0  2  0  0  0  0  0  0  0  0  0
  154.3010  148.7060  171.5720 C   0  0  0  0  0  0  0  0  0  0  0  0
  154.0820  148.7760  170.3610 O   0  0  0  0  0  0  0  0  0  0  0  0
  155.0830  146.5720  172.5810 C   0  0  0  0  0  0  0  0  0  0  0  0
  156.1800  145.5310  172.7120 C   0  0  0  0  0  0  0  0  0  0  0  0
  157.0800  145.7580  173.9330 C   0  0  0  0  0  0  0  0  0  0  0  0
  156.8300  146.7100  174.7070 O   0  0  0  0  0  0  0  0  0  0  0  0
  158.0230  144.9690  174.1480 O   0  0  0  0  0  0  0  0  0  0  0  0
  167.1150  150.2230  172.4580 N   0  0  0  0  0  0  0  0  0  0  0  0
  166.6110  150.7700  173.7110 C   0  0  2  0  0  0  0  0  0  0  0  0
  167.7900  151.2570  174.5320 C   0  0  0  0  0  0  0  0  0  0  0  0
  168.7590  150.5180  174.7300 O   0  0  0  0  0  0  0  0  0  0  0  0
  165.8280  149.7040  174.4890 C   0  0  2  0  0  0  0  0  0  0  0  0
  164.6600  149.2070  173.6490 C   0  0  0  0  0  0  0  0  0  0  0  0
  165.3790  150.2250  175.8370 C   0  0  0  0  0  0  0  0  0  0  0  0
  163.9930  147.9990  174.2280 C   0  0  0  0  0  0  0  0  0  0  0  0
  169.9360  148.4120  183.0220 N   0  0  0  0  0  0  0  0  0  0  0  0
  170.1030  147.0650  182.4790 C   0  0  2  0  0  0  0  0  0  0  0  0
  171.3780  146.3950  182.9890 C   0  0  0  0  0  0  0  0  0  0  0  0
  172.2510  145.9970  182.2240 O   0  0  0  0  0  0  0  0  0  0  0  0
  170.0540  147.1310  180.9650 C   0  0  0  0  0  0  0  0  0  0  0  0
  168.7130  147.5140  180.4410 C   0  0  0  0  0  0  0  0  0  0  0  0
  167.5720  147.2800  181.1950 C   0  0  0  0  0  0  0  0  0  0  0  0
  168.5940  148.1870  179.2460 C   0  0  0  0  0  0  0  0  0  0  0  0
  166.3420  147.6470  180.7340 C   0  0  0  0  0  0  0  0  0  0  0  0
  167.3600  148.5610  178.7800 C   0  0  0  0  0  0  0  0  0  0  0  0
  166.2330  148.2910  179.5230 C   0  0  0  0  0  0  0  0  0  0  0  0
  172.4100  142.0850  183.1470 N   0  0  0  0  0  0  0  0  0  0  0  0
  171.5420  141.5670  182.1110 C   0  0  2  0  0  0  0  0  0  0  0  0
  172.1270  141.5790  180.7010 C   0  0  0  0  0  0  0  0  0  0  0  0
  171.6070  140.8680  179.8360 O   0  0  0  0  0  0  0  0  0  0  0  0
  170.2840  142.4420  182.1110 C   0  0  0  0  0  0  0  0  0  0  0  0
  168.9860  141.8820  181.6690 C   0  0  0  0  0  0  0  0  0  0  0  0
  168.1060  143.0980  181.4290 C   0  0  0  0  0  0  0  0  0  0  0  0
  167.1900  143.3650  182.6080 C   0  0  0  0  0  0  0  0  0  0  0  0
  166.2730  144.5000  182.3260 N   0  0  0  0  0  0  0  0  0  0  0  0
  168.6670  139.2120  171.5270 N   0  0  0  0  0  0  0  0  0  0  0  0
  167.3310  138.8000  171.9340 C   0  0  2  0  0  0  0  0  0  0  0  0
  166.2380  139.2300  170.9550 C   0  0  0  0  0  0  0  0  0  0  0  0
  165.5000  140.1930  171.1890 O   0  0  0  0  0  0  0  0  0  0  0  0
  167.1580  139.3320  173.3460 C   0  0  0  0  0  0  0  0  0  0  0  0
  167.8100  138.3510  174.3190 C   0  0  0  0  0  0  0  0  0  0  0  0
  168.3670  139.0200  175.5550 C   0  0  0  0  0  0  0  0  0  0  0  0
  168.2500  140.2540  175.6670 O   0  0  0  0  0  0  0  0  0  0  0  0
  168.9520  138.3140  176.4010 O   0  0  0  0  0  0  0  0  0  0  0  0
  166.1980  138.5390  169.8190 N   0  0  0  0  0  0  0  0  0  0  0  0
  165.2680  138.8360  168.7400 C   0  0  2  0  0  0  0  0  0  0  0  0
  163.8170  138.6360  169.1420 C   0  0  0  0  0  0  0  0  0  0  0  0
  163.4720  137.7200  169.8930 O   0  0  0  0  0  0  0  0  0  0  0  0
  165.5610  137.9370  167.5440 C   0  0  0  0  0  0  0  0  0  0  0  0
  162.9850  139.5460  168.6460 N   0  0  0  0  0  0  0  0  0  0  0  0
  161.5640  139.6870  168.9740 C   0  0  2  0  0  0  0  0  0  0  0  0
  160.8250  138.4330  168.5300 C   0  0  0  0  0  0  0  0  0  0  0  0
  160.9730  138.0140  167.3650 O   0  0  0  0  0  0  0  0  0  0  0  0
  160.9880  140.9260  168.2760 C   0  0  2  0  0  0  0  0  0  0  0  0
  161.7030  142.2020  168.7460 C   0  0  0  0  0  0  0  0  0  0  0  0
  159.4940  141.0320  168.5630 C   0  0  0  0  0  0  0  0  0  0  0  0
  162.8300  142.7180  167.8020 C   0  0  0  0  0  0  0  0  0  0  0  0
  160.0330  137.7870  169.3850 N   0  0  0  0  0  0  0  0  0  0  0  0
  159.2360  136.6520  168.9130 C   0  0  2  0  0  0  0  0  0  0  0  0
  158.0810  137.0720  168.0210 C   0  0  0  0  0  0  0  0  0  0  0  0
  157.7040  138.2390  167.9070 O   0  0  0  0  0  0  0  0  0  0  0  0
  158.7070  136.0290  170.2070 C   0  0  0  0  0  0  0  0  0  0  0  0
  158.7210  137.1460  171.1880 C   0  0  0  0  0  0  0  0  0  0  0  0
  159.9130  137.9800  170.8380 C   0  0  0  0  0  0  0  0  0  0  0  0
  154.8140  136.5650  167.9810 N   0  0  0  0  0  0  0  0  0  0  0  0
  153.4960  137.0230  168.3770 C   0  0  2  0  0  0  0  0  0  0  0  0
  153.3860  138.5360  168.2570 C   0  0  0  0  0  0  0  0  0  0  0  0
  152.4170  139.0500  167.6820 O   0  0  0  0  0  0  0  0  0  0  0  0
  153.2140  136.5380  169.8020 C   0  0  0  0  0  0  0  0  0  0  0  0
  154.1860  137.0040  170.8910 C   0  0  0  0  0  0  0  0  0  0  0  0
  153.8430  136.4710  172.2610 C   0  0  0  0  0  0  0  0  0  0  0  0
  152.8430  135.7470  172.3750 O   0  0  0  0  0  0  0  0  0  0  0  0
  154.5560  136.7950  173.2330 O   0  0  0  0  0  0  0  0  0  0  0  0
  154.4670  139.2330  168.6000 N   0  0  0  0  0  0  0  0  0  0  0  0
  154.5070  140.6760  168.5060 C   0  0  2  0  0  0  0  0  0  0  0  0
  154.6410  141.0940  167.0720 C   0  0  0  0  0  0  0  0  0  0  0  0
  154.0390  142.0730  166.6390 O   0  0  0  0  0  0  0  0  0  0  0  0
  155.7010  141.1710  169.3300 C   0  0  0  0  0  0  0  0  0  0  0  0
  155.7130  142.6530  169.3930 C   0  0  0  0  0  0  0  0  0  0  0  0
  155.6950  140.5330  170.7020 C   0  0  0  0  0  0  0  0  0  0  0  0
  2  1  1  6
  3  2  1  0
  4  3  2  0
  5  2  1  0
  6  5  1  0
  7  6  1  0
  8  6  1  0
 10  9  1  6
 11 10  1  0
 12 11  2  0
 13 10  1  0
 14 13  1  0
 15 14  1  0
 16 15  1  0
 17 16  1  0
 19 18  1  1
 20 19  1  0
 21 20  2  0
 22 19  1  0
 23 22  1  0
 24 23  1  0
 25 24  2  0
 26 24  1  0
 28 27  1  0
 29 28  1  0
 30 29  2  0
 28 31  1  1
 32 29  1  0
 33 32  1  0
 34 33  1  0
 35 34  2  0
 33 36  1  1
 37 36  1  0
 38 37  1  0
 39 37  1  0
 40 34  1  0
 41 40  1  0
 42 41  1  0
 43 42  2  0
 41 44  1  1
 45 44  1  0
 46 45  1  0
 47 45  2  0
 48 46  2  0
 49 47  1  0
 49 48  1  0
 50 42  1  0
 51 50  1  1
 52 51  1  0
 53 52  2  0
 54 51  1  0
 55 54  1  0
 56 54  1  0
 57 52  1  0
 58 57  1  0
 59 58  1  0
 60 59  2  0
 58 61  1  1
 62 61  1  0
 63 62  1  0
 64 63  2  0
 65 63  1  0
 67 66  1  6
 68 67  1  0
 69 68  2  0
 70 67  1  0
 71 70  1  0
 70 72  1  1
 73 71  1  0
 75 74  1  1
 76 75  1  0
 77 76  2  0
 78 75  1  0
 79 78  1  0
 80 79  2  0
 81 79  1  0
 82 80  1  0
 83 81  2  0
 84 83  1  0
 84 82  2  0
 86 85  1  1
 87 86  1  0
 88 87  2  0
 89 86  1  0
 90 89  1  0
 91 90  1  0
 92 91  1  0
 93 92  1  0
 95 94  1  6
 96 95  1  0
 97 96  2  0
 98 95  1  0
 99 98  1  0
100 99  1  0
101100  2  0
102100  1  0
103 96  1  0
104103  1  0
105104  1  0
106105  2  0
104107  1  6
108105  1  0
109108  1  6
110109  1  0
111110  2  0
112109  1  0
113112  1  0
112114  1  1
115113  1  0
116110  1  0
117116  1  0
117118  1  6
119118  2  0
120117  1  0
121120  1  0
122121  1  0
122116  1  0
124123  1  1
125124  1  0
126125  2  0
127124  1  0
128127  1  0
129128  1  0
130129  2  0
131129  1  0
132125  1  0
133132  1  6
134133  1  0
135134  2  0
136133  1  0
137136  1  0
138136  1  0
M  END
$$$$
