
     RDKit          3D

157157  0  0  0  0  0  0  0  0999 V2000
   39.9980   -7.0830   40.6750 N   0  0  0  0  0  0  0  0  0  0  0  0
   39.8470   -7.0810   39.1980 C   0  0  2  0  0  0  0  0  0  0  0  0
   41.2090   -7.0460   38.5380 C   0  0  0  0  0  0  0  0  0  0  0  0
   41.9850   -6.1080   38.7340 O   0  0  0  0  0  0  0  0  0  0  0  0
   38.9940   -5.9120   38.6840 C   0  0  0  0  0  0  0  0  0  0  0  0
   39.1360   -5.6860   37.1820 C   0  0  0  0  0  0  0  0  0  0  0  0
   37.9490   -5.0010   36.5400 C   0  0  0  0  0  0  0  0  0  0  0  0
   37.4360   -5.5590   35.5380 O   0  0  0  0  0  0  0  0  0  0  0  0
   37.5460   -3.9040   37.0080 O   0  0  0  0  0  0  0  0  0  0  0  0
   41.4470   -8.0600   37.7100 N   0  0  0  0  0  0  0  0  0  0  0  0
   42.6960   -8.2460   36.9740 C   0  0  2  0  0  0  0  0  0  0  0  0
   43.1530   -7.0240   36.1530 C   0  0  0  0  0  0  0  0  0  0  0  0
   44.3670   -6.8280   36.0010 O   0  0  0  0  0  0  0  0  0  0  0  0
   42.6070   -9.4910   36.0470 C   0  0  0  0  0  0  0  0  0  0  0  0
   41.8450   -9.2600   34.7660 C   0  0  0  0  0  0  0  0  0  0  0  0
   40.4810   -9.0130   34.7340 N   0  0  0  0  0  0  0  0  0  0  0  0
   42.2640   -9.2440   33.4720 C   0  0  0  0  0  0  0  0  0  0  0  0
   40.1000   -8.8460   33.4780 C   0  0  0  0  0  0  0  0  0  0  0  0
   41.1600   -8.9880   32.6950 N   0  0  0  0  0  0  0  0  0  0  0  0
   42.2220   -6.2270   35.6090 N   0  0  0  0  0  0  0  0  0  0  0  0
   42.6110   -5.0430   34.8000 C   0  0  2  0  0  0  0  0  0  0  0  0
   43.4020   -4.0710   35.6830 C   0  0  0  0  0  0  0  0  0  0  0  0
   44.5300   -3.6400   35.3800 O   0  0  0  0  0  0  0  0  0  0  0  0
   41.3710   -4.3290   34.2260 C   0  0  0  0  0  0  0  0  0  0  0  0
   41.7460   -2.9580   33.6390 C   0  0  0  0  0  0  0  0  0  0  0  0
   40.6780   -5.2170   33.2010 C   0  0  0  0  0  0  0  0  0  0  0  0
   46.8240   -5.4440   36.2020 N   0  0  0  0  0  0  0  0  0  0  0  0
   47.7190   -5.2690   35.0990 C   0  0  2  0  0  0  0  0  0  0  0  0
   48.2130   -3.8330   35.0350 C   0  0  0  0  0  0  0  0  0  0  0  0
   49.4130   -3.5740   34.8750 O   0  0  0  0  0  0  0  0  0  0  0  0
   47.0310   -5.6380   33.7570 C   0  0  2  0  0  0  0  0  0  0  0  0
   46.7030   -7.1410   33.7580 C   0  0  0  0  0  0  0  0  0  0  0  0
   47.9200   -5.2510   32.5740 C   0  0  0  0  0  0  0  0  0  0  0  0
   46.2380   -7.7140   32.4280 C   0  0  0  0  0  0  0  0  0  0  0  0
   47.2910   -2.8860   35.1530 N   0  0  0  0  0  0  0  0  0  0  0  0
   47.6650   -1.4990   34.9870 C   0  0  2  0  0  0  0  0  0  0  0  0
   48.5690   -1.1220   36.1000 C   0  0  0  0  0  0  0  0  0  0  0  0
   49.5570   -0.4030   35.8730 O   0  0  0  0  0  0  0  0  0  0  0  0
   46.4440   -0.5800   34.9930 C   0  0  0  0  0  0  0  0  0  0  0  0
   45.4110   -0.9260   33.9320 C   0  0  0  0  0  0  0  0  0  0  0  0
   45.6670   -0.2940   32.5820 C   0  0  0  0  0  0  0  0  0  0  0  0
   46.7880   -0.3270   32.0490 O   0  0  0  0  0  0  0  0  0  0  0  0
   44.6040    0.2590   31.9970 N   0  0  0  0  0  0  0  0  0  0  0  0
   52.0540   -2.4900   35.3360 N   0  0  0  0  0  0  0  0  0  0  0  0
   52.7390   -1.6370   34.3720 C   0  0  2  0  0  0  0  0  0  0  0  0
   53.2750   -0.3800   34.9750 C   0  0  0  0  0  0  0  0  0  0  0  0
   54.3570    0.0430   34.6210 O   0  0  0  0  0  0  0  0  0  0  0  0
   51.7910   -1.1610   33.2960 C   0  0  0  0  0  0  0  0  0  0  0  0
   51.3940   -2.2320   32.3470 C   0  0  0  0  0  0  0  0  0  0  0  0
   50.1870   -1.7070   31.6230 C   0  0  0  0  0  0  0  0  0  0  0  0
   49.8930   -2.4820   30.4450 N   0  0  0  0  0  0  0  0  0  0  0  0
   48.8450   -2.2690   29.6510 C   0  0  0  0  0  0  0  0  0  0  0  0
   47.9590   -1.2840   29.9100 N   0  0  0  0  0  0  0  0  0  0  0  0
   48.6970   -3.0530   28.5880 N   0  0  0  0  0  0  0  0  0  0  0  0
   49.3610  -13.7520   20.9800 N   0  0  0  0  0  0  0  0  0  0  0  0
   47.9300  -13.9240   21.2200 C   0  0  2  0  0  0  0  0  0  0  0  0
   47.2450  -14.7970   20.1390 C   0  0  0  0  0  0  0  0  0  0  0  0
   46.1890  -15.3560   20.4030 O   0  0  0  0  0  0  0  0  0  0  0  0
   47.2030  -12.5770   21.4120 C   0  0  0  0  0  0  0  0  0  0  0  0
   47.1690  -11.5580   20.2610 C   0  0  0  0  0  0  0  0  0  0  0  0
   46.0330  -11.7860   19.2720 C   0  0  0  0  0  0  0  0  0  0  0  0
   47.0250  -10.1670   20.8450 C   0  0  0  0  0  0  0  0  0  0  0  0
   47.8410  -14.9130   18.9440 N   0  0  0  0  0  0  0  0  0  0  0  0
   47.2500  -15.7610   17.8940 C   0  0  2  0  0  0  0  0  0  0  0  0
   47.6860  -17.1980   18.0230 C   0  0  0  0  0  0  0  0  0  0  0  0
   47.1140  -18.0450   17.3880 O   0  0  0  0  0  0  0  0  0  0  0  0
   47.5760  -15.2280   16.5090 C   0  0  0  0  0  0  0  0  0  0  0  0
   47.1860  -13.7680   16.3580 C   0  0  0  0  0  0  0  0  0  0  0  0
   47.3120  -13.2530   14.9330 C   0  0  0  0  0  0  0  0  0  0  0  0
   48.0350  -12.2740   14.6620 O   0  0  0  0  0  0  0  0  0  0  0  0
   46.6070  -13.9030   14.0180 N   0  0  0  0  0  0  0  0  0  0  0  0
   53.1280   -7.3910   29.3750 N   0  0  0  0  0  0  0  0  0  0  0  0
   51.9970   -6.6920   29.9010 C   0  0  2  0  0  0  0  0  0  0  0  0
   51.3630   -5.7380   28.8550 C   0  0  0  0  0  0  0  0  0  0  0  0
   50.1290   -5.5410   28.8600 O   0  0  0  0  0  0  0  0  0  0  0  0
   52.3570   -5.9600   31.1800 C   0  0  0  0  0  0  0  0  0  0  0  0
   52.6080   -6.8420   32.3960 C   0  0  0  0  0  0  0  0  0  0  0  0
   53.1460   -5.9640   33.5010 C   0  0  0  0  0  0  0  0  0  0  0  0
   51.4000   -7.6530   32.8930 C   0  0  0  0  0  0  0  0  0  0  0  0
   52.1840   -5.1690   27.9790 N   0  0  0  0  0  0  0  0  0  0  0  0
   51.6960   -4.4340   26.7950 C   0  0  2  0  0  0  0  0  0  0  0  0
   50.9330   -5.2640   25.7900 C   0  0  0  0  0  0  0  0  0  0  0  0
   49.9610   -4.7760   25.2650 O   0  0  0  0  0  0  0  0  0  0  0  0
   52.8340   -3.7770   26.0150 C   0  0  0  0  0  0  0  0  0  0  0  0
   53.1480   -2.3410   26.4030 C   0  0  0  0  0  0  0  0  0  0  0  0
   54.4880   -1.9700   25.7470 C   0  0  0  0  0  0  0  0  0  0  0  0
   52.0280   -1.3840   25.9830 C   0  0  0  0  0  0  0  0  0  0  0  0
   51.3990   -6.4660   25.4640 N   0  0  0  0  0  0  0  0  0  0  0  0
   50.6860   -7.3440   24.4950 C   0  0  2  0  0  0  0  0  0  0  0  0
   49.3430   -7.9380   25.0120 C   0  0  0  0  0  0  0  0  0  0  0  0
   48.4200   -8.1110   24.2280 O   0  0  0  0  0  0  0  0  0  0  0  0
   51.5770   -8.5210   23.9490 C   0  0  0  0  0  0  0  0  0  0  0  0
   52.0030   -9.5190   25.0430 C   0  0  0  0  0  0  0  0  0  0  0  0
   50.8740   -9.3050   22.8490 C   0  0  0  0  0  0  0  0  0  0  0  0
   49.2450   -8.2150   26.3120 N   0  0  0  0  0  0  0  0  0  0  0  0
   48.3280   -9.2150   26.8340 C   0  0  2  0  0  0  0  0  0  0  0  0
   46.8420   -8.7820   26.7090 C   0  0  0  0  0  0  0  0  0  0  0  0
   46.4560   -7.6840   27.1320 O   0  0  0  0  0  0  0  0  0  0  0  0
   48.7270   -9.6010   28.3070 C   0  0  2  0  0  0  0  0  0  0  0  0
   47.9190  -10.7670   28.8670 C   0  0  0  0  0  0  0  0  0  0  0  0
   48.4880   -8.4260   29.2450 C   0  0  0  0  0  0  0  0  0  0  0  0
   48.1510  -12.1340   28.2680 C   0  0  0  0  0  0  0  0  0  0  0  0
   45.9990   -9.6270   26.1330 N   0  0  0  0  0  0  0  0  0  0  0  0
   44.5350   -9.2460   26.1460 C   0  0  2  0  0  0  0  0  0  0  0  0
   43.8940   -9.2900   27.5240 C   0  0  0  0  0  0  0  0  0  0  0  0
   44.1360  -10.2480   28.2830 O   0  0  0  0  0  0  0  0  0  0  0  0
   43.9080  -10.2760   25.2370 C   0  0  0  0  0  0  0  0  0  0  0  0
   44.8490  -11.3930   25.1720 C   0  0  0  0  0  0  0  0  0  0  0  0
   46.2230  -10.8260   25.3220 C   0  0  0  0  0  0  0  0  0  0  0  0
   43.0970   -8.2650   27.8300 N   0  0  0  0  0  0  0  0  0  0  0  0
   42.3080   -8.1820   29.0710 C   0  0  2  0  0  0  0  0  0  0  0  0
   41.0770   -9.1110   28.9890 C   0  0  0  0  0  0  0  0  0  0  0  0
   40.5300   -9.4690   30.0090 O   0  0  0  0  0  0  0  0  0  0  0  0
   41.8130   -6.7340   29.3720 C   0  0  0  0  0  0  0  0  0  0  0  0
   42.9030   -5.6940   29.7240 C   0  0  0  0  0  0  0  0  0  0  0  0
   44.2750   -6.0100   29.8350 C   0  0  0  0  0  0  0  0  0  0  0  0
   42.5290   -4.3540   29.9550 C   0  0  0  0  0  0  0  0  0  0  0  0
   45.2100   -5.0040   30.1600 C   0  0  0  0  0  0  0  0  0  0  0  0
   43.4560   -3.3760   30.2750 C   0  0  0  0  0  0  0  0  0  0  0  0
   44.7990   -3.6900   30.3690 C   0  0  0  0  0  0  0  0  0  0  0  0
   40.6570   -9.4520   27.7670 N   0  0  0  0  0  0  0  0  0  0  0  0
   39.5580  -10.4040   27.4630 C   0  0  2  0  0  0  0  0  0  0  0  0
   40.2470  -11.6600   26.9470 C   0  0  0  0  0  0  0  0  0  0  0  0
   41.4580  -11.7250   26.9940 O   0  0  0  0  0  0  0  0  0  0  0  0
   38.6040   -9.8500   26.3950 C   0  0  0  0  0  0  0  0  0  0  0  0
   39.3360   -9.2940   25.1560 C   0  0  0  0  0  0  0  0  0  0  0  0
   40.5730   -9.1470   25.1680 O   0  0  0  0  0  0  0  0  0  0  0  0
   38.6660   -8.9440   24.1780 O   0  0  0  0  0  0  0  0  0  0  0  0
   39.5050  -12.6450   26.4590 N   0  0  0  0  0  0  0  0  0  0  0  0
   40.0920  -13.9220   26.1590 C   0  0  2  0  0  0  0  0  0  0  0  0
   40.4050  -14.1290   24.7170 C   0  0  0  0  0  0  0  0  0  0  0  0
   39.6950  -13.6830   23.8250 O   0  0  0  0  0  0  0  0  0  0  0  0
   39.1870  -15.0480   26.6130 C   0  0  0  0  0  0  0  0  0  0  0  0
   38.7700  -15.0360   28.3990 S   0  0  0  0  0  0  0  0  0  0  0  0
   41.4310  -14.9200   24.5260 N   0  0  0  0  0  0  0  0  0  0  0  0
   41.7790  -15.4070   23.2270 C   0  0  2  0  0  0  0  0  0  0  0  0
   40.8500  -16.6010   22.9730 C   0  0  0  0  0  0  0  0  0  0  0  0
   40.2030  -17.1250   23.8490 O   0  0  0  0  0  0  0  0  0  0  0  0
   43.2250  -15.9210   23.2170 C   0  0  0  0  0  0  0  0  0  0  0  0
   43.5720  -16.7050   24.4170 C   0  0  0  0  0  0  0  0  0  0  0  0
   43.3900  -17.9880   24.5970 C   0  0  0  0  0  0  0  0  0  0  0  0
   44.1280  -16.2080   25.6260 C   0  0  0  0  0  0  0  0  0  0  0  0
   43.7780  -18.3580   25.8310 N   0  0  0  0  0  0  0  0  0  0  0  0
   44.2470  -17.2710   26.4860 C   0  0  0  0  0  0  0  0  0  0  0  0
   44.5260  -14.9520   26.0590 C   0  0  0  0  0  0  0  0  0  0  0  0
   44.7390  -17.1380   27.7530 C   0  0  0  0  0  0  0  0  0  0  0  0
   45.0330  -14.8240   27.3010 C   0  0  0  0  0  0  0  0  0  0  0  0
   45.1240  -15.9020   28.1400 C   0  0  0  0  0  0  0  0  0  0  0  0
   40.8870  -17.0570   21.7220 N   0  0  0  0  0  0  0  0  0  0  0  0
   40.1420  -18.2330   21.3790 C   0  0  2  0  0  0  0  0  0  0  0  0
   40.9790  -19.4500   21.7670 C   0  0  0  0  0  0  0  0  0  0  0  0
   42.1640  -19.3510   21.9600 O   0  0  0  0  0  0  0  0  0  0  0  0
   39.8790  -18.2630   19.8800 C   0  0  0  0  0  0  0  0  0  0  0  0
   38.5120  -17.7700   19.4570 C   0  0  0  0  0  0  0  0  0  0  0  0
   38.3310  -16.2780   19.6510 C   0  0  0  0  0  0  0  0  0  0  0  0
   39.3030  -15.5420   19.6470 O   0  0  0  0  0  0  0  0  0  0  0  0
   37.2030  -15.8410   19.8080 O   0  0  0  0  0  0  0  0  0  0  0  0
  2  1  1  1
  3  2  1  0
  4  3  2  0
  5  2  1  0
  6  5  1  0
  7  6  1  0
  8  7  2  0
  9  7  1  0
 10  3  1  0
 11 10  1  0
 12 11  1  0
 13 12  2  0
 11 14  1  6
 15 14  1  0
 16 15  1  0
 17 15  2  0
 18 16  2  0
 19 18  1  0
 19 17  1  0
 20 12  1  0
 21 20  1  1
 22 21  1  0
 23 22  2  0
 24 21  1  0
 25 24  1  0
 26 24  1  0
 28 27  1  1
 29 28  1  0
 30 29  2  0
 31 28  1  0
 32 31  1  0
 31 33  1  6
 34 32  1  0
 35 29  1  0
 36 35  1  0
 37 36  1  0
 38 37  2  0
 36 39  1  1
 40 39  1  0
 41 40  1  0
 42 41  2  0
 43 41  1  0
 45 44  1  1
 46 45  1  0
 47 46  2  0
 48 45  1  0
 49 48  1  0
 50 49  1  0
 51 50  1  0
 52 51  1  0
 53 52  1  0
 54 52  2  0
 56 55  1  6
 57 56  1  0
 58 57  2  0
 59 56  1  0
 60 59  1  0
 61 60  1  0
 62 60  1  0
 63 57  1  0
 64 63  1  0
 65 64  1  0
 66 65  2  0
 64 67  1  6
 68 67  1  0
 69 68  1  0
 70 69  2  0
 71 69  1  0
 73 72  1  6
 74 73  1  0
 75 74  2  0
 76 73  1  0
 77 76  1  0
 78 77  1  0
 79 77  1  0
 80 74  1  0
 81 80  1  0
 82 81  1  0
 83 82  2  0
 81 84  1  6
 85 84  1  0
 86 85  1  0
 87 85  1  0
 88 82  1  0
 89 88  1  1
 90 89  1  0
 91 90  2  0
 92 89  1  0
 93 92  1  0
 94 92  1  0
 95 90  1  0
 96 95  1  1
 97 96  1  0
 98 97  2  0
 99 96  1  0
100 99  1  0
 99101  1  1
102100  1  0
103 97  1  0
104103  1  0
104105  1  1
106105  2  0
107104  1  0
108107  1  0
109108  1  0
109103  1  0
110105  1  0
111110  1  0
112111  1  0
113112  2  0
111114  1  6
115114  1  0
116115  2  0
117115  1  0
118116  1  0
119117  2  0
120119  1  0
120118  2  0
121112  1  0
122121  1  0
123122  1  0
124123  2  0
122125  1  6
126125  1  0
127126  2  0
128126  1  0
129123  1  0
130129  1  0
131130  1  0
132131  2  0
130133  1  6
134133  1  0
135131  1  0
136135  1  0
137136  1  0
138137  2  0
136139  1  1
140139  1  0
141140  2  0
142140  1  0
143141  1  0
144143  1  0
144142  2  0
145142  1  0
146144  1  0
147145  2  0
148146  2  0
148147  1  0
149137  1  0
150149  1  0
151150  1  0
152151  2  0
150153  1  6
154153  1  0
155154  1  0
156155  2  0
157155  1  0
M  END
$$$$
