
     RDKit          3D

122121  0  0  0  0  0  0  0  0999 V2000
   52.4360  193.7900  193.6820 N   0  0  0  0  0  0  0  0  0  0  0  0
   52.5910  195.1520  194.1470 C   0  0  0  0  0  0  0  0  0  0  0  0
   52.4370  196.1700  193.0300 C   0  0  0  0  0  0  0  0  0  0  0  0
   51.8550  195.9080  191.9720 O   0  0  0  0  0  0  0  0  0  0  0  0
   52.9740  197.3620  193.2850 N   0  0  0  0  0  0  0  0  0  0  0  0
   52.9510  198.4460  192.3180 C   0  0  2  0  0  0  0  0  0  0  0  0
   54.3350  198.6350  191.7220 C   0  0  0  0  0  0  0  0  0  0  0  0
   55.3180  198.7160  192.4710 O   0  0  0  0  0  0  0  0  0  0  0  0
   52.4880  199.7540  192.9710 C   0  0  2  0  0  0  0  0  0  0  0  0
   53.4700  200.1890  193.9200 O   0  0  0  0  0  0  0  0  0  0  0  0
   51.1630  199.5520  193.6820 C   0  0  0  0  0  0  0  0  0  0  0  0
   57.5480  200.5830  189.9480 N   0  0  0  0  0  0  0  0  0  0  0  0
   58.0490  201.9510  190.1250 C   0  0  2  0  0  0  0  0  0  0  0  0
   57.9660  202.7650  188.8450 C   0  0  0  0  0  0  0  0  0  0  0  0
   57.4280  202.2980  187.8360 O   0  0  0  0  0  0  0  0  0  0  0  0
   59.5020  201.7300  190.5560 C   0  0  0  0  0  0  0  0  0  0  0  0
   59.8860  200.4700  189.8540 C   0  0  0  0  0  0  0  0  0  0  0  0
   58.6440  199.6070  189.8190 C   0  0  0  0  0  0  0  0  0  0  0  0
   62.4220  206.6480  186.3150 N   0  0  0  0  0  0  0  0  0  0  0  0
   63.6690  207.1680  186.8630 C   0  0  2  0  0  0  0  0  0  0  0  0
   64.1500  206.3980  188.0860 C   0  0  0  0  0  0  0  0  0  0  0  0
   65.3220  206.5260  188.4580 O   0  0  0  0  0  0  0  0  0  0  0  0
   63.5190  208.6530  187.2090 C   0  0  0  0  0  0  0  0  0  0  0  0
   62.4720  208.9600  188.2570 C   0  0  0  0  0  0  0  0  0  0  0  0
   61.1270  209.0460  187.9200 C   0  0  0  0  0  0  0  0  0  0  0  0
   62.8310  209.1830  189.5790 C   0  0  0  0  0  0  0  0  0  0  0  0
   60.1680  209.3320  188.8740 C   0  0  0  0  0  0  0  0  0  0  0  0
   61.8790  209.4690  190.5390 C   0  0  0  0  0  0  0  0  0  0  0  0
   60.5500  209.5430  190.1810 C   0  0  0  0  0  0  0  0  0  0  0  0
   59.5990  209.8300  191.1330 O   0  0  0  0  0  0  0  0  0  0  0  0
   63.2860  205.6040  188.7140 N   0  0  0  0  0  0  0  0  0  0  0  0
   63.6510  204.7670  189.8530 C   0  0  2  0  0  0  0  0  0  0  0  0
   63.2130  203.3290  189.6040 C   0  0  0  0  0  0  0  0  0  0  0  0
   62.5930  202.6780  190.4470 O   0  0  0  0  0  0  0  0  0  0  0  0
   63.0510  205.3120  191.1470 C   0  0  0  0  0  0  0  0  0  0  0  0
   61.5350  205.3380  191.1250 C   0  0  0  0  0  0  0  0  0  0  0  0
   60.9170  205.3260  190.0600 O   0  0  0  0  0  0  0  0  0  0  0  0
   60.9280  205.3710  192.3050 N   0  0  0  0  0  0  0  0  0  0  0  0
   63.5510  202.8160  188.4230 N   0  0  0  0  0  0  0  0  0  0  0  0
   63.1000  201.4950  188.0100 C   0  0  2  0  0  0  0  0  0  0  0  0
   63.6410  200.4120  188.9370 C   0  0  0  0  0  0  0  0  0  0  0  0
   64.6860  200.5670  189.5740 O   0  0  0  0  0  0  0  0  0  0  0  0
   63.5350  201.2130  186.5710 C   0  0  0  0  0  0  0  0  0  0  0  0
   65.0160  201.3580  186.3420 C   0  0  0  0  0  0  0  0  0  0  0  0
   65.8710  200.2850  186.5350 C   0  0  0  0  0  0  0  0  0  0  0  0
   65.5500  202.5670  185.9300 C   0  0  0  0  0  0  0  0  0  0  0  0
   67.2310  200.4180  186.3260 C   0  0  0  0  0  0  0  0  0  0  0  0
   66.9090  202.7060  185.7180 C   0  0  0  0  0  0  0  0  0  0  0  0
   67.7500  201.6300  185.9160 C   0  0  0  0  0  0  0  0  0  0  0  0
   62.9100  199.3030  189.0060 N   0  0  0  0  0  0  0  0  0  0  0  0
   63.3540  198.1270  189.7370 C   0  0  2  0  0  0  0  0  0  0  0  0
   64.0820  197.1870  188.7870 C   0  0  0  0  0  0  0  0  0  0  0  0
   63.6530  196.9780  187.6490 O   0  0  0  0  0  0  0  0  0  0  0  0
   62.1680  197.4110  190.3860 C   0  0  0  0  0  0  0  0  0  0  0  0
   62.5610  196.2720  191.3130 C   0  0  0  0  0  0  0  0  0  0  0  0
   63.2670  196.7850  192.5550 C   0  0  0  0  0  0  0  0  0  0  0  0
   63.6910  195.6390  193.4580 C   0  0  0  0  0  0  0  0  0  0  0  0
   64.3160  196.1290  194.7180 N   0  0  0  0  0  0  0  0  0  0  0  0
   62.2840  196.8020  185.0050 N   0  0  0  0  0  0  0  0  0  0  0  0
   60.8740  197.0320  184.7290 C   0  0  2  0  0  0  0  0  0  0  0  0
   60.4050  198.2960  185.4340 C   0  0  0  0  0  0  0  0  0  0  0  0
   60.8510  198.6050  186.5430 O   0  0  0  0  0  0  0  0  0  0  0  0
   60.0070  195.8320  185.1470 C   0  0  0  0  0  0  0  0  0  0  0  0
   59.9920  195.5230  186.6280 C   0  0  0  0  0  0  0  0  0  0  0  0
   60.9420  194.6810  187.1920 C   0  0  0  0  0  0  0  0  0  0  0  0
   59.0100  196.0510  187.4570 C   0  0  0  0  0  0  0  0  0  0  0  0
   60.9240  194.3880  188.5430 C   0  0  0  0  0  0  0  0  0  0  0  0
   58.9850  195.7630  188.8070 C   0  0  0  0  0  0  0  0  0  0  0  0
   59.9430  194.9310  189.3450 C   0  0  0  0  0  0  0  0  0  0  0  0
   59.9170  194.6430  190.6910 O   0  0  0  0  0  0  0  0  0  0  0  0
   71.4670  204.8430  187.3880 N   0  0  0  0  0  0  0  0  0  0  0  0
   70.3760  205.7000  187.8210 C   0  0  2  0  0  0  0  0  0  0  0  0
   70.7690  207.1660  187.6820 C   0  0  0  0  0  0  0  0  0  0  0  0
   71.9470  207.5110  187.5510 O   0  0  0  0  0  0  0  0  0  0  0  0
   69.9910  205.3980  189.2700 C   0  0  0  0  0  0  0  0  0  0  0  0
   69.2050  204.1190  189.4570 C   0  0  0  0  0  0  0  0  0  0  0  0
   69.7850  202.8790  189.2190 C   0  0  0  0  0  0  0  0  0  0  0  0
   67.8860  204.1510  189.8910 C   0  0  0  0  0  0  0  0  0  0  0  0
   69.0710  201.7100  189.3950 C   0  0  0  0  0  0  0  0  0  0  0  0
   67.1640  202.9850  190.0710 C   0  0  0  0  0  0  0  0  0  0  0  0
   67.7610  201.7680  189.8220 C   0  0  0  0  0  0  0  0  0  0  0  0
   67.0480  200.6050  190.0000 O   0  0  0  0  0  0  0  0  0  0  0  0
   68.1990  210.9420  191.8480 N   0  0  0  0  0  0  0  0  0  0  0  0
   67.2260  210.0040  192.4030 C   0  0  2  0  0  0  0  0  0  0  0  0
   67.1350  210.1480  193.9190 C   0  0  0  0  0  0  0  0  0  0  0  0
   66.0670  209.9360  194.5070 O   0  0  0  0  0  0  0  0  0  0  0  0
   67.5750  208.5620  191.9850 C   0  0  0  0  0  0  0  0  0  0  0  0
   66.5650  207.5830  192.5510 C   0  0  0  0  0  0  0  0  0  0  0  0
   67.6060  208.4460  190.4750 C   0  0  0  0  0  0  0  0  0  0  0  0
   68.2310  210.5430  194.5720 N   0  0  0  0  0  0  0  0  0  0  0  0
   68.2390  210.6580  196.0270 C   0  0  2  0  0  0  0  0  0  0  0  0
   67.3240  211.7650  196.5370 C   0  0  0  0  0  0  0  0  0  0  0  0
   66.9750  211.7610  197.7220 O   0  0  0  0  0  0  0  0  0  0  0  0
   69.6640  210.9080  196.5220 C   0  0  0  0  0  0  0  0  0  0  0  0
   70.6180  210.5460  195.5380 O   0  0  0  0  0  0  0  0  0  0  0  0
   64.4280  213.0120  194.6090 N   0  0  0  0  0  0  0  0  0  0  0  0
   63.1230  213.0320  193.9500 C   0  0  2  0  0  0  0  0  0  0  0  0
   62.2440  211.9590  194.5820 C   0  0  0  0  0  0  0  0  0  0  0  0
   62.7240  210.8450  194.8390 O   0  0  0  0  0  0  0  0  0  0  0  0
   63.2650  212.8300  192.4320 C   0  0  0  0  0  0  0  0  0  0  0  0
   61.9010  212.7750  191.7610 C   0  0  0  0  0  0  0  0  0  0  0  0
   64.1030  213.9450  191.8300 C   0  0  0  0  0  0  0  0  0  0  0  0
   60.9730  212.2440  194.8650 N   0  0  0  0  0  0  0  0  0  0  0  0
   60.0940  211.2190  195.4400 C   0  0  2  0  0  0  0  0  0  0  0  0
   59.9330  210.0310  194.5040 C   0  0  0  0  0  0  0  0  0  0  0  0
   60.2510  210.0850  193.3140 O   0  0  0  0  0  0  0  0  0  0  0  0
   58.7600  211.9510  195.6350 C   0  0  0  0  0  0  0  0  0  0  0  0
   59.0980  213.3980  195.6210 C   0  0  0  0  0  0  0  0  0  0  0  0
   60.3050  213.5530  194.7520 C   0  0  0  0  0  0  0  0  0  0  0  0
   59.4190  208.9330  195.0670 N   0  0  0  0  0  0  0  0  0  0  0  0
   59.1260  207.7520  194.2640 C   0  0  2  0  0  0  0  0  0  0  0  0
   58.0620  208.0270  193.2100 C   0  0  0  0  0  0  0  0  0  0  0  0
   57.9060  207.2320  192.2760 O   0  0  0  0  0  0  0  0  0  0  0  0
   58.6870  206.6000  195.1680 C   0  0  0  0  0  0  0  0  0  0  0  0
   57.5710  206.9720  195.9580 O   0  0  0  0  0  0  0  0  0  0  0  0
   57.3290  209.1290  193.3440 N   0  0  0  0  0  0  0  0  0  0  0  0
   56.3690  209.5690  192.3420 C   0  0  2  0  0  0  0  0  0  0  0  0
   56.3450  211.0890  192.3590 C   0  0  0  0  0  0  0  0  0  0  0  0
   56.2720  211.6910  193.4350 O   0  0  0  0  0  0  0  0  0  0  0  0
   54.9690  209.0100  192.6210 C   0  0  2  0  0  0  0  0  0  0  0  0
   55.0020  207.5790  192.5590 O   0  0  0  0  0  0  0  0  0  0  0  0
   53.9660  209.5360  191.6040 C   0  0  0  0  0  0  0  0  0  0  0  0
  2  1  1  0
  3  2  1  0
  4  3  2  0
  5  3  1  0
  6  5  1  1
  7  6  1  0
  8  7  2  0
  9  6  1  0
 10  9  1  0
  9 11  1  1
 13 12  1  0
 13 14  1  6
 15 14  2  0
 16 13  1  0
 17 16  1  0
 18 17  1  0
 18 12  1  0
 20 19  1  1
 21 20  1  0
 22 21  2  0
 23 20  1  0
 24 23  1  0
 25 24  2  0
 26 24  1  0
 27 25  1  0
 28 26  2  0
 29 28  1  0
 29 27  2  0
 30 29  1  0
 31 21  1  0
 32 31  1  0
 33 32  1  0
 34 33  2  0
 32 35  1  1
 36 35  1  0
 37 36  2  0
 38 36  1  0
 39 33  1  0
 40 39  1  0
 41 40  1  0
 42 41  2  0
 40 43  1  6
 44 43  1  0
 45 44  2  0
 46 44  1  0
 47 45  1  0
 48 46  2  0
 49 47  2  0
 49 48  1  0
 50 41  1  0
 51 50  1  0
 52 51  1  0
 53 52  2  0
 51 54  1  6
 55 54  1  0
 56 55  1  0
 57 56  1  0
 58 57  1  0
 60 59  1  1
 61 60  1  0
 62 61  2  0
 63 60  1  0
 64 63  1  0
 65 64  2  0
 66 64  1  0
 67 65  1  0
 68 66  2  0
 69 68  1  0
 69 67  2  0
 70 69  1  0
 72 71  1  1
 73 72  1  0
 74 73  2  0
 75 72  1  0
 76 75  1  0
 77 76  2  0
 78 76  1  0
 79 77  1  0
 80 78  2  0
 81 80  1  0
 81 79  2  0
 82 81  1  0
 84 83  1  1
 85 84  1  0
 86 85  2  0
 87 84  1  0
 88 87  1  0
 89 87  1  0
 90 85  1  0
 91 90  1  0
 92 91  1  0
 93 92  2  0
 91 94  1  6
 95 94  1  0
 97 96  1  1
 98 97  1  0
 99 98  2  0
100 97  1  0
101100  1  0
102100  1  0
103 98  1  0
104103  1  0
104105  1  6
106105  2  0
107104  1  0
108107  1  0
109108  1  0
109103  1  0
110105  1  0
111110  1  0
112111  1  0
113112  2  0
111114  1  1
115114  1  0
116112  1  0
117116  1  1
118117  1  0
119118  2  0
120117  1  0
121120  1  0
120122  1  6
M  END
$$$$
