
     RDKit          3D

 84 80  0  0  0  0  0  0  0  0999 V2000
  243.5520   -5.2920  -33.5510 N   0  0  0  0  0  0  0  0  0  0  0  0
  242.1050   -5.3110  -33.3310 C   0  0  2  0  0  0  0  0  0  0  0  0
  241.7660   -5.8560  -31.9490 C   0  0  0  0  0  0  0  0  0  0  0  0
  240.9190   -5.2900  -31.2490 O   0  0  0  0  0  0  0  0  0  0  0  0
  241.4010   -6.1330  -34.4190 C   0  0  0  0  0  0  0  0  0  0  0  0
  239.8930   -6.3090  -34.1600 C   0  0  0  0  0  0  0  0  0  0  0  0
  239.4770   -7.1460  -33.3540 O   0  0  0  0  0  0  0  0  0  0  0  0
  239.0770   -5.5170  -34.8520 N   0  0  0  0  0  0  0  0  0  0  0  0
  242.2830   -3.2450  -29.3820 N   0  0  0  0  0  0  0  0  0  0  0  0
  241.3300   -2.1500  -29.5250 C   0  0  2  0  0  0  0  0  0  0  0  0
  239.9910   -2.5100  -28.8960 C   0  0  0  0  0  0  0  0  0  0  0  0
  239.4330   -1.7370  -28.1080 O   0  0  0  0  0  0  0  0  0  0  0  0
  241.1610   -1.7930  -31.0010 C   0  0  0  0  0  0  0  0  0  0  0  0
  239.4700   -3.6960  -29.2180 N   0  0  0  0  0  0  0  0  0  0  0  0
  238.2140   -4.1400  -28.6230 C   0  0  2  0  0  0  0  0  0  0  0  0
  238.3720   -4.3540  -27.1210 C   0  0  0  0  0  0  0  0  0  0  0  0
  237.5610   -3.8620  -26.3290 O   0  0  0  0  0  0  0  0  0  0  0  0
  237.7290   -5.4150  -29.3240 C   0  0  0  0  0  0  0  0  0  0  0  0
  236.3250   -5.8470  -28.8880 C   0  0  0  0  0  0  0  0  0  0  0  0
  235.9130   -5.5520  -27.7520 O   0  0  0  0  0  0  0  0  0  0  0  0
  235.6180   -6.4800  -29.7010 O   0  0  0  0  0  0  0  0  0  0  0  0
  238.4200   -1.2280  -25.1630 N   0  0  0  0  0  0  0  0  0  0  0  0
  237.0950   -0.6180  -25.1000 C   0  0  2  0  0  0  0  0  0  0  0  0
  236.2270   -1.2830  -24.0370 C   0  0  0  0  0  0  0  0  0  0  0  0
  235.4360   -0.6150  -23.3610 O   0  0  0  0  0  0  0  0  0  0  0  0
  236.4180   -0.6890  -26.4670 C   0  0  0  0  0  0  0  0  0  0  0  0
  236.3580   -2.6020  -23.8760 N   0  0  0  0  0  0  0  0  0  0  0  0
  235.5680   -3.3090  -22.8740 C   0  0  2  0  0  0  0  0  0  0  0  0
  235.9550   -2.8820  -21.4630 C   0  0  0  0  0  0  0  0  0  0  0  0
  235.0970   -2.4950  -20.6630 O   0  0  0  0  0  0  0  0  0  0  0  0
  235.7400   -4.8200  -23.0370 C   0  0  0  0  0  0  0  0  0  0  0  0
  235.3780   -5.2580  -24.3370 O   0  0  0  0  0  0  0  0  0  0  0  0
  237.9480    3.1070  -29.8090 N   0  0  0  0  0  0  0  0  0  0  0  0
  238.9140    2.2890  -30.5540 C   0  0  2  0  0  0  0  0  0  0  0  0
  239.8730    3.1050  -31.4040 C   0  0  0  0  0  0  0  0  0  0  0  0
  240.9850    2.6330  -31.6690 O   0  0  0  0  0  0  0  0  0  0  0  0
  238.0370    1.3590  -31.4030 C   0  0  0  0  0  0  0  0  0  0  0  0
  236.6700    1.9040  -31.3500 C   0  0  0  0  0  0  0  0  0  0  0  0
  236.5540    2.8410  -30.1930 C   0  0  0  0  0  0  0  0  0  0  0  0
  234.3610  -14.8350  -25.1690 N   0  0  0  0  0  0  0  0  0  0  0  0
  234.8670  -14.7490  -26.5360 C   0  0  2  0  0  0  0  0  0  0  0  0
  236.2820  -15.3120  -26.6490 C   0  0  0  0  0  0  0  0  0  0  0  0
  236.5280  -16.2520  -27.4160 O   0  0  0  0  0  0  0  0  0  0  0  0
  234.7990  -13.2950  -27.0250 C   0  0  2  0  0  0  0  0  0  0  0  0
  235.5750  -13.1400  -28.2200 O   0  0  0  0  0  0  0  0  0  0  0  0
  235.2760  -12.3070  -25.9540 C   0  0  0  0  0  0  0  0  0  0  0  0
  242.5750   -1.2870  -35.8620 N   0  0  0  0  0  0  0  0  0  0  0  0
  241.9070   -1.0280  -34.5920 C   0  0  2  0  0  0  0  0  0  0  0  0
  240.4680   -0.5670  -34.8050 C   0  0  0  0  0  0  0  0  0  0  0  0
  239.5750   -0.9320  -34.0310 O   0  0  0  0  0  0  0  0  0  0  0  0
  242.6900    0.0030  -33.7900 C   0  0  0  0  0  0  0  0  0  0  0  0
  240.2240    0.2500  -35.8350 N   0  0  0  0  0  0  0  0  0  0  0  0
  238.8830    0.7700  -36.0910 C   0  0  2  0  0  0  0  0  0  0  0  0
  238.0180   -0.2200  -36.8680 C   0  0  0  0  0  0  0  0  0  0  0  0
  236.8270   -0.3680  -36.5730 O   0  0  0  0  0  0  0  0  0  0  0  0
  238.9640    2.0880  -36.8610 C   0  0  2  0  0  0  0  0  0  0  0  0
  239.3070    1.8330  -38.2340 O   0  0  0  0  0  0  0  0  0  0  0  0
  240.0210    2.9950  -36.2630 C   0  0  0  0  0  0  0  0  0  0  0  0
  238.5930   -0.9050  -37.8520 N   0  0  0  0  0  0  0  0  0  0  0  0
  237.8130   -1.7040  -38.7810 C   0  0  2  0  0  0  0  0  0  0  0  0
  237.2130   -2.9270  -38.0900 C   0  0  0  0  0  0  0  0  0  0  0  0
  237.5680   -3.2860  -36.9640 O   0  0  0  0  0  0  0  0  0  0  0  0
  238.6730   -2.1410  -39.9640 C   0  0  0  0  0  0  0  0  0  0  0  0
  236.3000   -3.5850  -38.8030 N   0  0  0  0  0  0  0  0  0  0  0  0
  235.5880   -4.7490  -38.2900 C   0  0  2  0  0  0  0  0  0  0  0  0
  236.1910   -5.9990  -38.9130 C   0  0  0  0  0  0  0  0  0  0  0  0
  235.9660   -6.2820  -40.0930 O   0  0  0  0  0  0  0  0  0  0  0  0
  234.0930   -4.6590  -38.5890 C   0  0  0  0  0  0  0  0  0  0  0  0
  233.8160   -4.9790  -39.9370 O   0  0  0  0  0  0  0  0  0  0  0  0
  236.9420   -6.7550  -38.1170 N   0  0  0  0  0  0  0  0  0  0  0  0
  237.6280   -7.9590  -38.5850 C   0  0  2  0  0  0  0  0  0  0  0  0
  237.2700   -9.1260  -37.6700 C   0  0  0  0  0  0  0  0  0  0  0  0
  238.1030   -9.5950  -36.8870 O   0  0  0  0  0  0  0  0  0  0  0  0
  239.1440   -7.7460  -38.6450 C   0  0  0  0  0  0  0  0  0  0  0  0
  239.7660   -6.6060  -39.4670 C   0  0  0  0  0  0  0  0  0  0  0  0
  239.1220   -6.4670  -40.8450 C   0  0  0  0  0  0  0  0  0  0  0  0
  239.7380   -5.2940  -38.7040 C   0  0  0  0  0  0  0  0  0  0  0  0
  236.0200   -9.6240  -37.7450 N   0  0  0  0  0  0  0  0  0  0  0  0
  235.5970  -10.7010  -36.8350 C   0  0  2  0  0  0  0  0  0  0  0  0
  236.3740  -11.9910  -37.0550 C   0  0  0  0  0  0  0  0  0  0  0  0
  236.8650  -12.6000  -36.0990 O   0  0  0  0  0  0  0  0  0  0  0  0
  234.1080  -10.8810  -37.1680 C   0  0  0  0  0  0  0  0  0  0  0  0
  233.7000   -9.5920  -37.8200 C   0  0  0  0  0  0  0  0  0  0  0  0
  234.9070   -9.1490  -38.5840 C   0  0  0  0  0  0  0  0  0  0  0  0
  2  1  1  6
  3  2  1  0
  4  3  2  0
  5  2  1  0
  6  5  1  0
  7  6  2  0
  8  6  1  0
 10  9  1  0
 11 10  1  0
 12 11  2  0
 10 13  1  6
 14 11  1  0
 15 14  1  0
 16 15  1  0
 17 16  2  0
 15 18  1  6
 19 18  1  0
 20 19  2  0
 21 19  1  0
 23 22  1  0
 24 23  1  0
 25 24  2  0
 23 26  1  6
 27 24  1  0
 28 27  1  0
 29 28  1  0
 30 29  2  0
 28 31  1  1
 32 31  1  0
 34 33  1  0
 34 35  1  6
 36 35  2  0
 37 34  1  0
 38 37  1  0
 39 38  1  0
 39 33  1  0
 41 40  1  1
 42 41  1  0
 43 42  2  0
 44 41  1  0
 45 44  1  0
 44 46  1  1
 48 47  1  0
 49 48  1  0
 50 49  2  0
 48 51  1  6
 52 49  1  0
 53 52  1  6
 54 53  1  0
 55 54  2  0
 56 53  1  0
 57 56  1  0
 56 58  1  1
 59 54  1  0
 60 59  1  0
 61 60  1  0
 62 61  2  0
 60 63  1  6
 64 61  1  0
 65 64  1  0
 66 65  1  0
 67 66  2  0
 65 68  1  6
 69 68  1  0
 70 66  1  0
 71 70  1  0
 72 71  1  0
 73 72  2  0
 71 74  1  1
 75 74  1  0
 76 75  1  0
 77 75  1  0
 78 72  1  0
 79 78  1  0
 79 80  1  6
 81 80  2  0
 82 79  1  0
 83 82  1  0
 84 83  1  0
 84 78  1  0
M  END
$$$$
