
     RDKit          3D

 92 88  0  0  0  0  0  0  0  0999 V2000
  173.1820  -55.6570    4.5110 N   0  0  0  0  0  0  0  0  0  0  0  0
  173.6350  -54.3370    4.0910 C   0  0  2  0  0  0  0  0  0  0  0  0
  174.2970  -54.4000    2.7220 C   0  0  0  0  0  0  0  0  0  0  0  0
  174.0630  -53.5330    1.8720 O   0  0  0  0  0  0  0  0  0  0  0  0
  174.5940  -53.7550    5.1320 C   0  0  0  0  0  0  0  0  0  0  0  0
  175.1820  -52.4220    4.7090 C   0  0  0  0  0  0  0  0  0  0  0  0
  176.1300  -52.3640    3.9260 O   0  0  0  0  0  0  0  0  0  0  0  0
  174.6270  -51.3380    5.2400 N   0  0  0  0  0  0  0  0  0  0  0  0
  171.7490  -54.5740   -0.0590 N   0  0  0  0  0  0  0  0  0  0  0  0
  170.9670  -53.3440   -0.1250 C   0  0  2  0  0  0  0  0  0  0  0  0
  171.7270  -52.2420   -0.8500 C   0  0  0  0  0  0  0  0  0  0  0  0
  171.1950  -51.5920   -1.7560 O   0  0  0  0  0  0  0  0  0  0  0  0
  170.5900  -52.8990    1.2860 C   0  0  0  0  0  0  0  0  0  0  0  0
  172.9780  -52.0130   -0.4540 N   0  0  0  0  0  0  0  0  0  0  0  0
  173.7880  -50.9980   -1.1150 C   0  0  2  0  0  0  0  0  0  0  0  0
  174.1120  -51.4130   -2.5450 C   0  0  0  0  0  0  0  0  0  0  0  0
  173.9900  -50.6120   -3.4790 O   0  0  0  0  0  0  0  0  0  0  0  0
  175.0580  -50.7430   -0.3010 C   0  0  0  0  0  0  0  0  0  0  0  0
  175.8360  -49.5260   -0.7830 C   0  0  0  0  0  0  0  0  0  0  0  0
  175.7660  -49.1840   -1.9780 O   0  0  0  0  0  0  0  0  0  0  0  0
  176.5150  -48.8880    0.0460 O   0  0  0  0  0  0  0  0  0  0  0  0
  171.3710  -50.7440   -4.7520 N   0  0  0  0  0  0  0  0  0  0  0  0
  171.1930  -49.3090   -4.9580 C   0  0  2  0  0  0  0  0  0  0  0  0
  172.1510  -48.7380   -5.9980 C   0  0  0  0  0  0  0  0  0  0  0  0
  171.8010  -47.7830   -6.7000 O   0  0  0  0  0  0  0  0  0  0  0  0
  171.3570  -48.5720   -3.6310 C   0  0  0  0  0  0  0  0  0  0  0  0
  173.3670  -49.2680   -6.0920 N   0  0  0  0  0  0  0  0  0  0  0  0
  174.2940  -48.7650   -7.1000 C   0  0  2  0  0  0  0  0  0  0  0  0
  173.8260  -49.1410   -8.5040 C   0  0  0  0  0  0  0  0  0  0  0  0
  173.7770  -48.2920   -9.4040 O   0  0  0  0  0  0  0  0  0  0  0  0
  175.7070  -49.2820   -6.8290 C   0  0  0  0  0  0  0  0  0  0  0  0
  175.8640  -50.6070   -7.2930 O   0  0  0  0  0  0  0  0  0  0  0  0
  185.4180  -51.0240   -4.6020 N   0  0  0  0  0  0  0  0  0  0  0  0
  185.3960  -51.3310   -3.1750 C   0  0  2  0  0  0  0  0  0  0  0  0
  185.4130  -52.8330   -2.9100 C   0  0  0  0  0  0  0  0  0  0  0  0
  186.3050  -53.3410   -2.2190 O   0  0  0  0  0  0  0  0  0  0  0  0
  184.1810  -50.6640   -2.5240 C   0  0  2  0  0  0  0  0  0  0  0  0
  183.9770  -51.2050   -1.2130 O   0  0  0  0  0  0  0  0  0  0  0  0
  182.9220  -50.8360   -3.3720 C   0  0  0  0  0  0  0  0  0  0  0  0
  169.5300  -53.2710    6.2660 N   0  0  0  0  0  0  0  0  0  0  0  0
  169.5500  -52.7740    4.8980 C   0  0  2  0  0  0  0  0  0  0  0  0
  169.4790  -51.2520    4.8560 C   0  0  0  0  0  0  0  0  0  0  0  0
  170.0330  -50.6310    3.9410 O   0  0  0  0  0  0  0  0  0  0  0  0
  168.4070  -53.3900    4.1070 C   0  0  0  0  0  0  0  0  0  0  0  0
  168.7800  -50.6400    5.8150 N   0  0  0  0  0  0  0  0  0  0  0  0
  168.6240  -49.1900    5.8810 C   0  0  2  0  0  0  0  0  0  0  0  0
  169.7410  -48.4950    6.6580 C   0  0  0  0  0  0  0  0  0  0  0  0
  170.1690  -47.4000    6.2750 O   0  0  0  0  0  0  0  0  0  0  0  0
  167.2690  -48.8380    6.5000 C   0  0  2  0  0  0  0  0  0  0  0  0
  167.3080  -49.0770    7.9130 O   0  0  0  0  0  0  0  0  0  0  0  0
  166.1710  -49.6760    5.8740 C   0  0  0  0  0  0  0  0  0  0  0  0
  170.2250  -49.0990    7.7400 N   0  0  0  0  0  0  0  0  0  0  0  0
  171.1680  -48.4220    8.6160 C   0  0  2  0  0  0  0  0  0  0  0  0
  172.5220  -48.2600    7.9340 C   0  0  0  0  0  0  0  0  0  0  0  0
  172.8170  -48.8690    6.9030 O   0  0  0  0  0  0  0  0  0  0  0  0
  171.3460  -49.1890    9.9210 C   0  0  0  0  0  0  0  0  0  0  0  0
  173.3630  -47.4330    8.5420 N   0  0  0  0  0  0  0  0  0  0  0  0
  174.6910  -47.1550    8.0190 C   0  0  2  0  0  0  0  0  0  0  0  0
  175.7030  -47.9550    8.8270 C   0  0  0  0  0  0  0  0  0  0  0  0
  176.0040  -47.6170    9.9750 O   0  0  0  0  0  0  0  0  0  0  0  0
  174.9870  -45.6590    8.0590 C   0  0  0  0  0  0  0  0  0  0  0  0
  175.3650  -45.2480    9.3590 O   0  0  0  0  0  0  0  0  0  0  0  0
  176.2330  -49.0120    8.2160 N   0  0  0  0  0  0  0  0  0  0  0  0
  177.1950  -49.9080    8.8540 C   0  0  2  0  0  0  0  0  0  0  0  0
  178.4150  -49.9870    7.9480 C   0  0  0  0  0  0  0  0  0  0  0  0
  178.6510  -51.0100    7.2940 O   0  0  0  0  0  0  0  0  0  0  0  0
  176.6030  -51.3010    9.0750 C   0  0  0  0  0  0  0  0  0  0  0  0
  175.3040  -51.5240    9.8550 C   0  0  0  0  0  0  0  0  0  0  0  0
  175.2280  -50.6700   11.1170 C   0  0  0  0  0  0  0  0  0  0  0  0
  174.0830  -51.3340    8.9620 C   0  0  0  0  0  0  0  0  0  0  0  0
  179.2110  -48.9160    7.8760 N   0  0  0  0  0  0  0  0  0  0  0  0
  180.3440  -48.9260    6.9310 C   0  0  2  0  0  0  0  0  0  0  0  0
  181.3840  -49.9810    7.2600 C   0  0  0  0  0  0  0  0  0  0  0  0
  181.8320  -50.7160    6.3690 O   0  0  0  0  0  0  0  0  0  0  0  0
  180.8980  -47.4990    7.0490 C   0  0  0  0  0  0  0  0  0  0  0  0
  180.5040  -47.0530    8.4100 C   0  0  0  0  0  0  0  0  0  0  0  0
  179.1620  -47.6740    8.6680 C   0  0  0  0  0  0  0  0  0  0  0  0
  181.7670  -50.0790    8.5310 N   0  0  0  0  0  0  0  0  0  0  0  0
  182.7840  -51.0040    9.0100 C   0  0  2  0  0  0  0  0  0  0  0  0
  182.1820  -52.2040    9.7340 C   0  0  0  0  0  0  0  0  0  0  0  0
  182.7850  -52.7220   10.6800 O   0  0  0  0  0  0  0  0  0  0  0  0
  183.7770  -50.2640    9.9080 C   0  0  0  0  0  0  0  0  0  0  0  0
  183.2430  -49.2030   10.8860 C   0  0  0  0  0  0  0  0  0  0  0  0
  182.2940  -49.7690   11.9390 C   0  0  0  0  0  0  0  0  0  0  0  0
  184.3810  -48.4410   11.5520 C   0  0  0  0  0  0  0  0  0  0  0  0
  180.9920  -52.6460    9.3150 N   0  0  0  0  0  0  0  0  0  0  0  0
  180.3270  -53.7560    9.9920 C   0  0  2  0  0  0  0  0  0  0  0  0
  181.1860  -55.0110    9.9200 C   0  0  0  0  0  0  0  0  0  0  0  0
  181.1820  -55.8280   10.8490 O   0  0  0  0  0  0  0  0  0  0  0  0
  178.9250  -53.9850    9.3920 C   0  0  0  0  0  0  0  0  0  0  0  0
  179.0130  -54.2410    7.8930 C   0  0  0  0  0  0  0  0  0  0  0  0
  178.2080  -55.1160   10.1050 C   0  0  0  0  0  0  0  0  0  0  0  0
  2  1  1  1
  3  2  1  0
  4  3  2  0
  5  2  1  0
  6  5  1  0
  7  6  2  0
  8  6  1  0
 10  9  1  0
 11 10  1  0
 12 11  2  0
 10 13  1  1
 14 11  1  0
 15 14  1  0
 16 15  1  0
 17 16  2  0
 15 18  1  1
 19 18  1  0
 20 19  2  0
 21 19  1  0
 23 22  1  0
 24 23  1  0
 25 24  2  0
 23 26  1  1
 27 24  1  0
 28 27  1  0
 29 28  1  0
 30 29  2  0
 28 31  1  1
 32 31  1  0
 34 33  1  6
 35 34  1  0
 36 35  2  0
 37 34  1  0
 38 37  1  0
 37 39  1  6
 41 40  1  0
 42 41  1  0
 43 42  2  0
 41 44  1  6
 45 42  1  0
 46 45  1  1
 47 46  1  0
 48 47  2  0
 49 46  1  0
 50 49  1  0
 49 51  1  6
 52 47  1  0
 53 52  1  0
 54 53  1  0
 55 54  2  0
 53 56  1  1
 57 54  1  0
 58 57  1  0
 59 58  1  0
 60 59  2  0
 58 61  1  1
 62 61  1  0
 63 59  1  0
 64 63  1  0
 65 64  1  0
 66 65  2  0
 64 67  1  6
 68 67  1  0
 69 68  1  0
 70 68  1  0
 71 65  1  0
 72 71  1  0
 72 73  1  1
 74 73  2  0
 75 72  1  0
 76 75  1  0
 77 71  1  0
 77 76  1  0
 78 73  1  0
 79 78  1  0
 80 79  1  0
 81 80  2  0
 79 82  1  1
 83 82  1  0
 84 83  1  0
 85 83  1  0
 86 80  1  0
 87 86  1  6
 88 87  1  0
 89 88  2  0
 90 87  1  0
 91 90  1  0
 92 90  1  0
M  END
$$$$
