
     RDKit          3D

153152  0  0  0  0  0  0  0  0999 V2000
   43.7550  -51.8300   77.4910 N   0  0  0  0  0  0  0  0  0  0  0  0
   43.7600  -52.9660   76.5590 C   0  0  2  0  0  0  0  0  0  0  0  0
   43.4140  -54.3200   77.2190 C   0  0  0  0  0  0  0  0  0  0  0  0
   43.0520  -55.2630   76.5180 O   0  0  0  0  0  0  0  0  0  0  0  0
   45.1230  -53.0600   75.8670 C   0  0  0  0  0  0  0  0  0  0  0  0
   45.3450  -51.9450   74.8200 C   0  0  0  0  0  0  0  0  0  0  0  0
   44.6220  -50.9260   74.8540 O   0  0  0  0  0  0  0  0  0  0  0  0
   46.2340  -52.1010   73.9390 O   0  0  0  0  0  0  0  0  0  0  0  0
   43.5490  -54.4390   78.5360 N   0  0  0  0  0  0  0  0  0  0  0  0
   43.0840  -55.6060   79.2840 C   0  0  2  0  0  0  0  0  0  0  0  0
   41.5760  -55.8450   79.1030 C   0  0  0  0  0  0  0  0  0  0  0  0
   41.1340  -56.9910   78.9930 O   0  0  0  0  0  0  0  0  0  0  0  0
   43.4870  -55.3540   80.7430 C   0  0  0  0  0  0  0  0  0  0  0  0
   42.9560  -56.3110   81.7740 C   0  0  0  0  0  0  0  0  0  0  0  0
   41.7000  -56.1270   82.3410 C   0  0  0  0  0  0  0  0  0  0  0  0
   43.8150  -57.2790   82.3200 C   0  0  0  0  0  0  0  0  0  0  0  0
   41.2340  -56.9990   83.3380 C   0  0  0  0  0  0  0  0  0  0  0  0
   43.4000  -58.1100   83.2960 C   0  0  0  0  0  0  0  0  0  0  0  0
   42.0650  -57.9710   83.8370 C   0  0  0  0  0  0  0  0  0  0  0  0
   40.7780  -54.7900   79.0250 N   0  0  0  0  0  0  0  0  0  0  0  0
   39.3240  -55.0070   78.9600 C   0  0  2  0  0  0  0  0  0  0  0  0
   38.8300  -55.1610   77.5220 C   0  0  0  0  0  0  0  0  0  0  0  0
   39.1980  -54.3650   76.6520 O   0  0  0  0  0  0  0  0  0  0  0  0
   38.5570  -53.8370   79.5950 C   0  0  0  0  0  0  0  0  0  0  0  0
   38.9890  -53.5230   80.9920 C   0  0  0  0  0  0  0  0  0  0  0  0
   38.4460  -54.2200   82.0640 C   0  0  0  0  0  0  0  0  0  0  0  0
   39.9500  -52.5450   81.2350 C   0  0  0  0  0  0  0  0  0  0  0  0
   38.8500  -53.9570   83.3700 C   0  0  0  0  0  0  0  0  0  0  0  0
   40.3590  -52.2610   82.5350 C   0  0  0  0  0  0  0  0  0  0  0  0
   39.8050  -52.9710   83.6150 C   0  0  0  0  0  0  0  0  0  0  0  0
   37.9010  -56.0920   77.2890 N   0  0  0  0  0  0  0  0  0  0  0  0
   37.1160  -56.0810   76.0450 C   0  0  2  0  0  0  0  0  0  0  0  0
   36.3210  -54.7890   75.8930 C   0  0  0  0  0  0  0  0  0  0  0  0
   36.2430  -53.9400   76.7910 O   0  0  0  0  0  0  0  0  0  0  0  0
   36.1690  -57.2740   76.1870 C   0  0  0  0  0  0  0  0  0  0  0  0
   36.7610  -58.1190   77.1990 C   0  0  0  0  0  0  0  0  0  0  0  0
   37.5410  -57.2280   78.1410 C   0  0  0  0  0  0  0  0  0  0  0  0
   35.8180  -54.5960   74.6740 N   0  0  0  0  0  0  0  0  0  0  0  0
   35.0030  -53.4290   74.3890 C   0  0  2  0  0  0  0  0  0  0  0  0
   33.6960  -53.4720   75.1940 C   0  0  0  0  0  0  0  0  0  0  0  0
   33.2460  -54.5340   75.6420 O   0  0  0  0  0  0  0  0  0  0  0  0
   34.6850  -53.3460   72.8850 C   0  0  0  0  0  0  0  0  0  0  0  0
   33.5980  -54.2000   72.5400 O   0  0  0  0  0  0  0  0  0  0  0  0
   31.1610  -55.9740   73.5330 N   0  0  0  0  0  0  0  0  0  0  0  0
   31.3980  -57.3870   73.8390 C   0  0  2  0  0  0  0  0  0  0  0  0
   31.0380  -57.7170   75.2920 C   0  0  0  0  0  0  0  0  0  0  0  0
   30.4200  -58.7640   75.5650 O   0  0  0  0  0  0  0  0  0  0  0  0
   32.8520  -57.7810   73.5270 C   0  0  0  0  0  0  0  0  0  0  0  0
   33.0990  -57.9500   72.0140 C   0  0  0  0  0  0  0  0  0  0  0  0
   32.3060  -58.6540   71.3240 O   0  0  0  0  0  0  0  0  0  0  0  0
   34.0680  -57.3340   71.5160 O   0  0  0  0  0  0  0  0  0  0  0  0
   31.4040  -56.8310   76.2380 N   0  0  0  0  0  0  0  0  0  0  0  0
   31.0810  -57.0760   77.6360 C   0  0  2  0  0  0  0  0  0  0  0  0
   29.5730  -57.0640   77.8490 C   0  0  0  0  0  0  0  0  0  0  0  0
   29.0700  -57.8700   78.6170 O   0  0  0  0  0  0  0  0  0  0  0  0
   31.7550  -56.0570   78.5370 C   0  0  0  0  0  0  0  0  0  0  0  0
   33.2780  -56.2450   78.5970 C   0  0  0  0  0  0  0  0  0  0  0  0
   33.9130  -55.0800   79.3200 C   0  0  0  0  0  0  0  0  0  0  0  0
   33.6690  -57.5620   79.3070 C   0  0  0  0  0  0  0  0  0  0  0  0
   28.4780  -60.6700   76.8370 N   0  0  0  0  0  0  0  0  0  0  0  0
   28.7820  -61.6020   77.9070 C   0  0  2  0  0  0  0  0  0  0  0  0
   27.8260  -61.4040   79.0760 C   0  0  0  0  0  0  0  0  0  0  0  0
   27.2690  -62.3640   79.6240 O   0  0  0  0  0  0  0  0  0  0  0  0
   30.2070  -61.3680   78.3680 C   0  0  2  0  0  0  0  0  0  0  0  0
   31.0780  -61.4500   77.2430 O   0  0  0  0  0  0  0  0  0  0  0  0
   30.5770  -62.3840   79.4140 C   0  0  0  0  0  0  0  0  0  0  0  0
   33.5180  -55.8020   83.4290 N   0  0  0  0  0  0  0  0  0  0  0  0
   34.5240  -56.8530   83.5470 C   0  0  2  0  0  0  0  0  0  0  0  0
   34.5720  -57.3830   84.9820 C   0  0  0  0  0  0  0  0  0  0  0  0
   34.8040  -58.5740   85.2170 O   0  0  0  0  0  0  0  0  0  0  0  0
   35.9080  -56.3570   83.1310 C   0  0  0  0  0  0  0  0  0  0  0  0
   36.9030  -57.3600   83.4500 C   0  0  0  0  0  0  0  0  0  0  0  0
   37.2880  -58.4210   82.6620 C   0  0  0  0  0  0  0  0  0  0  0  0
   37.6190  -57.4890   84.6730 C   0  0  0  0  0  0  0  0  0  0  0  0
   38.1870  -59.2110   83.3340 N   0  0  0  0  0  0  0  0  0  0  0  0
   38.4060  -58.6680   84.5730 C   0  0  0  0  0  0  0  0  0  0  0  0
   37.6500  -56.7450   85.8610 C   0  0  0  0  0  0  0  0  0  0  0  0
   39.2440  -59.0910   85.5940 C   0  0  0  0  0  0  0  0  0  0  0  0
   38.4860  -57.1510   86.8590 C   0  0  0  0  0  0  0  0  0  0  0  0
   39.2710  -58.3160   86.7360 C   0  0  0  0  0  0  0  0  0  0  0  0
   31.3630  -59.6190   85.7120 N   0  0  0  0  0  0  0  0  0  0  0  0
   31.4430  -60.8030   84.8560 C   0  0  2  0  0  0  0  0  0  0  0  0
   32.5080  -61.7480   85.3680 C   0  0  0  0  0  0  0  0  0  0  0  0
   32.3060  -62.9750   85.4690 O   0  0  0  0  0  0  0  0  0  0  0  0
   31.7600  -60.3900   83.4070 C   0  0  2  0  0  0  0  0  0  0  0  0
   30.5370  -59.8000   82.7370 C   0  0  0  0  0  0  0  0  0  0  0  0
   32.2680  -61.6080   82.5900 C   0  0  0  0  0  0  0  0  0  0  0  0
   30.8930  -59.0940   81.4820 C   0  0  0  0  0  0  0  0  0  0  0  0
   33.6820  -61.2000   85.6440 N   0  0  0  0  0  0  0  0  0  0  0  0
   34.7880  -62.0600   86.0320 C   0  0  2  0  0  0  0  0  0  0  0  0
   34.5520  -62.6390   87.4230 C   0  0  0  0  0  0  0  0  0  0  0  0
   34.9380  -63.7860   87.6870 O   0  0  0  0  0  0  0  0  0  0  0  0
   36.1130  -61.2900   85.9260 C   0  0  0  0  0  0  0  0  0  0  0  0
   36.2750  -60.3520   86.9900 O   0  0  0  0  0  0  0  0  0  0  0  0
   32.5750  -65.6320   86.8440 N   0  0  0  0  0  0  0  0  0  0  0  0
   33.2810  -66.5210   85.9410 C   0  0  2  0  0  0  0  0  0  0  0  0
   34.4250  -67.2490   86.6190 C   0  0  0  0  0  0  0  0  0  0  0  0
   34.5570  -68.4620   86.4550 O   0  0  0  0  0  0  0  0  0  0  0  0
   33.7670  -65.7260   84.7120 C   0  0  2  0  0  0  0  0  0  0  0  0
   32.6220  -65.3730   83.9460 O   0  0  0  0  0  0  0  0  0  0  0  0
   34.6480  -66.5670   83.8400 C   0  0  0  0  0  0  0  0  0  0  0  0
   35.3540  -66.5070   87.2280 N   0  0  0  0  0  0  0  0  0  0  0  0
   36.4900  -67.0100   87.9870 C   0  0  2  0  0  0  0  0  0  0  0  0
   36.2440  -67.1750   89.4880 C   0  0  0  0  0  0  0  0  0  0  0  0
   37.0740  -67.7870   90.1760 O   0  0  0  0  0  0  0  0  0  0  0  0
   37.6690  -66.0560   87.7810 C   0  0  0  0  0  0  0  0  0  0  0  0
   38.0220  -65.8410   86.3350 C   0  0  0  0  0  0  0  0  0  0  0  0
   37.3330  -64.9070   85.5790 C   0  0  0  0  0  0  0  0  0  0  0  0
   39.0340  -66.5520   85.7400 C   0  0  0  0  0  0  0  0  0  0  0  0
   37.6390  -64.6910   84.2600 C   0  0  0  0  0  0  0  0  0  0  0  0
   39.3520  -66.3500   84.4260 C   0  0  0  0  0  0  0  0  0  0  0  0
   38.6470  -65.4130   83.6780 C   0  0  0  0  0  0  0  0  0  0  0  0
   43.5550  -61.5020   92.2440 N   0  0  0  0  0  0  0  0  0  0  0  0
   44.2160  -61.0470   91.0270 C   0  0  2  0  0  0  0  0  0  0  0  0
   44.4340  -59.5350   91.0420 C   0  0  0  0  0  0  0  0  0  0  0  0
   45.5330  -59.0600   90.7340 O   0  0  0  0  0  0  0  0  0  0  0  0
   43.4220  -61.4490   89.7950 C   0  0  0  0  0  0  0  0  0  0  0  0
   44.1440  -61.0260   88.5470 C   0  0  0  0  0  0  0  0  0  0  0  0
   45.3600  -61.6250   88.1820 C   0  0  0  0  0  0  0  0  0  0  0  0
   43.6400  -60.0290   87.7400 C   0  0  0  0  0  0  0  0  0  0  0  0
   46.0480  -61.2390   87.0780 C   0  0  0  0  0  0  0  0  0  0  0  0
   44.3000  -59.6690   86.5600 C   0  0  0  0  0  0  0  0  0  0  0  0
   45.5070  -60.2750   86.2580 C   0  0  0  0  0  0  0  0  0  0  0  0
   46.1720  -59.8870   85.1390 O   0  0  0  0  0  0  0  0  0  0  0  0
   49.1120  -62.7800   85.2190 N   0  0  0  0  0  0  0  0  0  0  0  0
   48.1070  -63.2210   84.2520 C   0  0  2  0  0  0  0  0  0  0  0  0
   46.9090  -63.8020   84.9930 C   0  0  0  0  0  0  0  0  0  0  0  0
   47.0850  -64.5370   85.9570 O   0  0  0  0  0  0  0  0  0  0  0  0
   48.7240  -64.2820   83.3250 C   0  0  2  0  0  0  0  0  0  0  0  0
   49.9730  -63.7230   82.6240 C   0  0  0  0  0  0  0  0  0  0  0  0
   47.6500  -64.8550   82.3900 C   0  0  0  0  0  0  0  0  0  0  0  0
   49.7430  -62.3970   81.8200 C   0  0  0  0  0  0  0  0  0  0  0  0
   45.6900  -63.5470   84.5270 N   0  0  0  0  0  0  0  0  0  0  0  0
   44.5370  -64.1940   85.1430 C   0  0  2  0  0  0  0  0  0  0  0  0
   44.2390  -65.4830   84.3690 C   0  0  0  0  0  0  0  0  0  0  0  0
   43.7430  -65.4440   83.2410 O   0  0  0  0  0  0  0  0  0  0  0  0
   43.3440  -63.2450   85.1470 C   0  0  0  0  0  0  0  0  0  0  0  0
   42.0280  -63.7920   85.7050 C   0  0  0  0  0  0  0  0  0  0  0  0
   42.1490  -64.2220   87.1850 C   0  0  0  0  0  0  0  0  0  0  0  0
   40.9100  -62.7710   85.4930 C   0  0  0  0  0  0  0  0  0  0  0  0
   44.5140  -66.6330   84.9930 N   0  0  0  0  0  0  0  0  0  0  0  0
   44.3250  -67.9270   84.3460 C   0  0  2  0  0  0  0  0  0  0  0  0
   42.8860  -68.3860   84.4720 C   0  0  0  0  0  0  0  0  0  0  0  0
   42.2470  -68.1870   85.5100 O   0  0  0  0  0  0  0  0  0  0  0  0
   45.2230  -68.9880   84.9650 C   0  0  0  0  0  0  0  0  0  0  0  0
   46.5740  -68.7240   84.6410 O   0  0  0  0  0  0  0  0  0  0  0  0
   42.3730  -68.9950   83.4070 N   0  0  0  0  0  0  0  0  0  0  0  0
   40.9840  -69.4210   83.4400 C   0  0  2  0  0  0  0  0  0  0  0  0
   40.8550  -70.6320   84.3640 C   0  0  0  0  0  0  0  0  0  0  0  0
   41.8190  -71.3710   84.6040 O   0  0  0  0  0  0  0  0  0  0  0  0
   40.4610  -69.7130   82.0230 C   0  0  2  0  0  0  0  0  0  0  0  0
   41.4000  -70.5050   81.3240 O   0  0  0  0  0  0  0  0  0  0  0  0
   40.2360  -68.4020   81.2100 C   0  0  0  0  0  0  0  0  0  0  0  0
  2  1  1  1
  3  2  1  0
  4  3  2  0
  5  2  1  0
  6  5  1  0
  7  6  2  0
  8  6  1  0
  9  3  1  0
 10  9  1  0
 11 10  1  0
 12 11  2  0
 10 13  1  1
 14 13  1  0
 15 14  2  0
 16 14  1  0
 17 15  1  0
 18 16  2  0
 19 18  1  0
 19 17  2  0
 20 11  1  0
 21 20  1  0
 22 21  1  0
 23 22  2  0
 21 24  1  6
 25 24  1  0
 26 25  2  0
 27 25  1  0
 28 26  1  0
 29 27  2  0
 30 29  1  0
 30 28  2  0
 31 22  1  0
 32 31  1  0
 32 33  1  1
 34 33  2  0
 35 32  1  0
 36 35  1  0
 37 36  1  0
 37 31  1  0
 38 33  1  0
 39 38  1  0
 40 39  1  0
 41 40  2  0
 39 42  1  6
 43 42  1  0
 45 44  1  1
 46 45  1  0
 47 46  2  0
 48 45  1  0
 49 48  1  0
 50 49  2  0
 51 49  1  0
 52 46  1  0
 53 52  1  0
 54 53  1  0
 55 54  2  0
 53 56  1  1
 57 56  1  0
 58 57  1  0
 59 57  1  0
 61 60  1  6
 62 61  1  0
 63 62  2  0
 64 61  1  0
 65 64  1  0
 64 66  1  1
 68 67  1  1
 69 68  1  0
 70 69  2  0
 71 68  1  0
 72 71  1  0
 73 72  2  0
 74 72  1  0
 75 73  1  0
 76 74  2  0
 76 75  1  0
 77 74  1  0
 78 76  1  0
 79 77  2  0
 80 79  1  0
 80 78  2  0
 82 81  1  1
 83 82  1  0
 84 83  2  0
 85 82  1  0
 86 85  1  0
 85 87  1  6
 88 86  1  0
 89 83  1  0
 90 89  1  0
 91 90  1  0
 92 91  2  0
 90 93  1  1
 94 93  1  0
 96 95  1  1
 97 96  1  0
 98 97  2  0
 99 96  1  0
100 99  1  0
 99101  1  6
102 97  1  0
103102  1  0
104103  1  0
105104  2  0
103106  1  1
107106  1  0
108107  2  0
109107  1  0
110108  1  0
111109  2  0
112110  2  0
112111  1  0
114113  1  1
115114  1  0
116115  2  0
117114  1  0
118117  1  0
119118  2  0
120118  1  0
121119  1  0
122120  2  0
123121  2  0
123122  1  0
124123  1  0
126125  1  1
127126  1  0
128127  2  0
129126  1  0
130129  1  0
129131  1  6
132130  1  0
133127  1  0
134133  1  0
135134  1  0
136135  2  0
134137  1  6
138137  1  0
139138  1  0
140138  1  0
141135  1  0
142141  1  0
143142  1  0
144143  2  0
142145  1  1
146145  1  0
147143  1  0
148147  1  6
149148  1  0
150149  2  0
151148  1  0
152151  1  0
151153  1  6
M  END
$$$$
