
     RDKit          3D

141137  0  0  0  0  0  0  0  0999 V2000
  147.5050   46.1360  216.9500 N   0  0  0  0  0  0  0  0  0  0  0  0
  147.8650   45.4090  215.7370 C   0  0  2  0  0  0  0  0  0  0  0  0
  146.6320   44.8650  215.0270 C   0  0  0  0  0  0  0  0  0  0  0  0
  146.0060   43.9200  215.4990 O   0  0  0  0  0  0  0  0  0  0  0  0
  148.8100   44.2350  216.0320 C   0  0  2  0  0  0  0  0  0  0  0  0
  150.0750   44.7310  216.7350 C   0  0  0  0  0  0  0  0  0  0  0  0
  149.1590   43.5040  214.7440 C   0  0  0  0  0  0  0  0  0  0  0  0
  150.9510   43.6110  217.2720 C   0  0  0  0  0  0  0  0  0  0  0  0
  146.2890   45.4620  213.8910 N   0  0  0  0  0  0  0  0  0  0  0  0
  145.1330   45.0080  213.1300 C   0  0  2  0  0  0  0  0  0  0  0  0
  145.5580   44.1980  211.9030 C   0  0  0  0  0  0  0  0  0  0  0  0
  146.7230   44.2140  211.5030 O   0  0  0  0  0  0  0  0  0  0  0  0
  144.2580   46.2000  212.7190 C   0  0  0  0  0  0  0  0  0  0  0  0
  144.6060   46.8310  211.3850 C   0  0  0  0  0  0  0  0  0  0  0  0
  143.6730   47.9810  211.0290 C   0  0  0  0  0  0  0  0  0  0  0  0
  142.7350   47.7780  210.2220 O   0  0  0  0  0  0  0  0  0  0  0  0
  143.8800   49.0910  211.5620 O   0  0  0  0  0  0  0  0  0  0  0  0
  144.6070   43.4670  211.3310 N   0  0  0  0  0  0  0  0  0  0  0  0
  144.8400   42.7120  210.1110 C   0  0  2  0  0  0  0  0  0  0  0  0
  143.8390   43.1760  209.0700 C   0  0  0  0  0  0  0  0  0  0  0  0
  142.6420   43.2710  209.3510 O   0  0  0  0  0  0  0  0  0  0  0  0
  144.7060   41.2110  210.3550 C   0  0  0  0  0  0  0  0  0  0  0  0
  145.6800   40.6710  211.3630 C   0  0  0  0  0  0  0  0  0  0  0  0
  145.4570   40.8350  212.7210 C   0  0  0  0  0  0  0  0  0  0  0  0
  146.8220   39.9960  210.9500 C   0  0  0  0  0  0  0  0  0  0  0  0
  146.3630   40.3420  213.6520 C   0  0  0  0  0  0  0  0  0  0  0  0
  147.7270   39.5090  211.8720 C   0  0  0  0  0  0  0  0  0  0  0  0
  147.4930   39.6790  213.2250 C   0  0  0  0  0  0  0  0  0  0  0  0
  144.3190   43.4820  207.8750 N   0  0  0  0  0  0  0  0  0  0  0  0
  143.4280   43.9630  206.8400 C   0  0  2  0  0  0  0  0  0  0  0  0
  143.6790   43.2100  205.5410 C   0  0  0  0  0  0  0  0  0  0  0  0
  144.8290   42.9630  205.1730 O   0  0  0  0  0  0  0  0  0  0  0  0
  143.6000   45.4730  206.6380 C   0  0  0  0  0  0  0  0  0  0  0  0
  142.4320   46.1280  205.9190 C   0  0  0  0  0  0  0  0  0  0  0  0
  142.6650   47.6190  205.7270 C   0  0  0  0  0  0  0  0  0  0  0  0
  142.8490   48.3130  206.9970 N   0  0  0  0  0  0  0  0  0  0  0  0
  143.3480   49.5420  207.1070 C   0  0  0  0  0  0  0  0  0  0  0  0
  143.7220   50.2080  206.0210 N   0  0  0  0  0  0  0  0  0  0  0  0
  143.4850   50.1030  208.3010 N   0  0  0  0  0  0  0  0  0  0  0  0
  142.5950   42.8350  204.8640 N   0  0  0  0  0  0  0  0  0  0  0  0
  142.6660   42.2270  203.5410 C   0  0  2  0  0  0  0  0  0  0  0  0
  142.5460   43.2960  202.4620 C   0  0  0  0  0  0  0  0  0  0  0  0
  141.5230   43.9870  202.3780 O   0  0  0  0  0  0  0  0  0  0  0  0
  141.5460   41.1880  203.3430 C   0  0  0  0  0  0  0  0  0  0  0  0
  141.6330   40.5740  201.9490 C   0  0  0  0  0  0  0  0  0  0  0  0
  141.6400   40.1270  204.4040 C   0  0  0  0  0  0  0  0  0  0  0  0
  143.5740   43.4370  201.6300 N   0  0  0  0  0  0  0  0  0  0  0  0
  143.5560   44.4910  200.6190 C   0  0  2  0  0  0  0  0  0  0  0  0
  143.8490   43.9920  199.2150 C   0  0  0  0  0  0  0  0  0  0  0  0
  144.3130   42.8700  199.0150 O   0  0  0  0  0  0  0  0  0  0  0  0
  144.5740   45.6110  200.9350 C   0  0  0  0  0  0  0  0  0  0  0  0
  144.2040   46.3180  202.2270 C   0  0  0  0  0  0  0  0  0  0  0  0
  145.9990   45.0500  200.9940 C   0  0  0  0  0  0  0  0  0  0  0  0
  146.8070   40.0250  202.8770 N   0  0  0  0  0  0  0  0  0  0  0  0
  146.4380   40.2840  204.2540 C   0  0  2  0  0  0  0  0  0  0  0  0
  147.6000   40.9930  204.9270 C   0  0  0  0  0  0  0  0  0  0  0  0
  148.6620   40.3980  205.1210 O   0  0  0  0  0  0  0  0  0  0  0  0
  146.0930   39.0100  205.0080 C   0  0  0  0  0  0  0  0  0  0  0  0
  145.6600   39.3290  206.4110 C   0  0  0  0  0  0  0  0  0  0  0  0
  145.0020   37.9120  207.2500 S   0  0  0  0  0  0  0  0  0  0  0  0
  143.5210   37.5950  206.3170 C   0  0  0  0  0  0  0  0  0  0  0  0
  147.3530   32.1270  210.7250 N   0  0  0  0  0  0  0  0  0  0  0  0
  146.0710   31.6630  211.2510 C   0  0  2  0  0  0  0  0  0  0  0  0
  144.9110   32.5600  210.8200 C   0  0  0  0  0  0  0  0  0  0  0  0
  143.8120   32.0690  210.5470 O   0  0  0  0  0  0  0  0  0  0  0  0
  146.1290   31.5680  212.7680 C   0  0  0  0  0  0  0  0  0  0  0  0
  147.0910   30.5020  213.2380 C   0  0  0  0  0  0  0  0  0  0  0  0
  147.2110   29.4470  212.6140 O   0  0  0  0  0  0  0  0  0  0  0  0
  147.7930   30.7750  214.3350 N   0  0  0  0  0  0  0  0  0  0  0  0
  145.1420   33.8680  210.7650 N   0  0  0  0  0  0  0  0  0  0  0  0
  144.0880   34.7940  210.3170 C   0  0  2  0  0  0  0  0  0  0  0  0
  143.7410   34.5440  208.8690 C   0  0  0  0  0  0  0  0  0  0  0  0
  142.5660   34.5860  208.4890 O   0  0  0  0  0  0  0  0  0  0  0  0
  144.5020   36.2570  210.4750 C   0  0  0  0  0  0  0  0  0  0  0  0
  144.3440   36.7820  211.8630 C   0  0  0  0  0  0  0  0  0  0  0  0
  143.1510   37.2570  212.3480 N   0  0  0  0  0  0  0  0  0  0  0  0
  145.2410   36.9010  212.8820 C   0  0  0  0  0  0  0  0  0  0  0  0
  143.3070   37.6530  213.6030 C   0  0  0  0  0  0  0  0  0  0  0  0
  144.5690   37.4480  213.9430 N   0  0  0  0  0  0  0  0  0  0  0  0
  144.7710   34.2920  208.0650 N   0  0  0  0  0  0  0  0  0  0  0  0
  144.5750   34.0520  206.6440 C   0  0  2  0  0  0  0  0  0  0  0  0
  143.7790   32.7760  206.4710 C   0  0  0  0  0  0  0  0  0  0  0  0
  142.8430   32.7370  205.6830 O   0  0  0  0  0  0  0  0  0  0  0  0
  145.9160   33.9660  205.8970 C   0  0  0  0  0  0  0  0  0  0  0  0
  145.8100   33.8040  204.3690 C   0  0  0  0  0  0  0  0  0  0  0  0
  144.9220   34.8640  203.7470 C   0  0  0  0  0  0  0  0  0  0  0  0
  147.1940   33.8550  203.7330 C   0  0  0  0  0  0  0  0  0  0  0  0
  141.6930   31.3120  208.5770 N   0  0  0  0  0  0  0  0  0  0  0  0
  140.3060   31.4540  208.9830 C   0  0  2  0  0  0  0  0  0  0  0  0
  139.5660   32.3860  208.0190 C   0  0  0  0  0  0  0  0  0  0  0  0
  138.3920   32.1790  207.7460 O   0  0  0  0  0  0  0  0  0  0  0  0
  140.1940   31.9560  210.4320 C   0  0  0  0  0  0  0  0  0  0  0  0
  140.5370   30.8660  211.4570 C   0  0  0  0  0  0  0  0  0  0  0  0
  140.7420   29.6980  211.0630 O   0  0  0  0  0  0  0  0  0  0  0  0
  140.6000   31.1700  212.6630 O   0  0  0  0  0  0  0  0  0  0  0  0
  140.2520   33.3930  207.4810 N   0  0  0  0  0  0  0  0  0  0  0  0
  139.5820   34.3010  206.5470 C   0  0  2  0  0  0  0  0  0  0  0  0
  139.1680   33.5880  205.2680 C   0  0  0  0  0  0  0  0  0  0  0  0
  138.0300   33.7250  204.8150 O   0  0  0  0  0  0  0  0  0  0  0  0
  140.4730   35.4910  206.1970 C   0  0  0  0  0  0  0  0  0  0  0  0
  139.8280   36.4560  205.2090 C   0  0  0  0  0  0  0  0  0  0  0  0
  138.8390   37.3430  205.6190 C   0  0  0  0  0  0  0  0  0  0  0  0
  140.2100   36.4760  203.8810 C   0  0  0  0  0  0  0  0  0  0  0  0
  138.2460   38.2260  204.7230 C   0  0  0  0  0  0  0  0  0  0  0  0
  139.6330   37.3570  202.9800 C   0  0  0  0  0  0  0  0  0  0  0  0
  138.6560   38.2300  203.4070 C   0  0  0  0  0  0  0  0  0  0  0  0
  138.0820   39.1010  202.5080 O   0  0  0  0  0  0  0  0  0  0  0  0
  136.2980   31.1820  205.6260 N   0  0  0  0  0  0  0  0  0  0  0  0
  135.0030   31.8180  205.8250 C   0  0  2  0  0  0  0  0  0  0  0  0
  134.4490   32.4710  204.5600 C   0  0  0  0  0  0  0  0  0  0  0  0
  133.2510   32.7190  204.4520 O   0  0  0  0  0  0  0  0  0  0  0  0
  135.0950   32.8460  206.9420 C   0  0  0  0  0  0  0  0  0  0  0  0
  134.4440   32.3630  208.2130 C   0  0  0  0  0  0  0  0  0  0  0  0
  133.7300   31.3610  208.2070 O   0  0  0  0  0  0  0  0  0  0  0  0
  134.6890   33.0630  209.3130 N   0  0  0  0  0  0  0  0  0  0  0  0
  135.3110   32.7450  203.5920 N   0  0  0  0  0  0  0  0  0  0  0  0
  134.8900   33.5660  202.4650 C   0  0  2  0  0  0  0  0  0  0  0  0
  135.1040   32.8920  201.1260 C   0  0  0  0  0  0  0  0  0  0  0  0
  134.9410   33.5080  200.0760 O   0  0  0  0  0  0  0  0  0  0  0  0
  135.6540   34.8900  202.4440 C   0  0  2  0  0  0  0  0  0  0  0  0
  137.0570   34.5990  202.4270 O   0  0  0  0  0  0  0  0  0  0  0  0
  135.3080   35.7270  203.6630 C   0  0  0  0  0  0  0  0  0  0  0  0
  138.9200   26.2580  214.1710 N   0  0  0  0  0  0  0  0  0  0  0  0
  139.1320   27.6890  214.0070 C   0  0  2  0  0  0  0  0  0  0  0  0
  140.5880   27.9010  214.3650 C   0  0  0  0  0  0  0  0  0  0  0  0
  140.9840   27.7170  215.5230 O   0  0  0  0  0  0  0  0  0  0  0  0
  138.1880   28.5060  214.8970 C   0  0  0  0  0  0  0  0  0  0  0  0
  138.0020   29.9440  214.4690 C   0  0  0  0  0  0  0  0  0  0  0  0
  137.0590   30.7170  215.3970 C   0  0  0  0  0  0  0  0  0  0  0  0
  135.6400   30.4170  215.1880 N   0  0  0  0  0  0  0  0  0  0  0  0
  134.8840   30.9890  214.2500 C   0  0  0  0  0  0  0  0  0  0  0  0
  135.4110   31.8710  213.4120 N   0  0  0  0  0  0  0  0  0  0  0  0
  133.6000   30.6750  214.1390 N   0  0  0  0  0  0  0  0  0  0  0  0
  142.4940   30.3960  214.6540 N   0  0  0  0  0  0  0  0  0  0  0  0
  142.8320   31.4430  215.6230 C   0  0  2  0  0  0  0  0  0  0  0  0
  142.6110   30.9770  217.0650 C   0  0  0  0  0  0  0  0  0  0  0  0
  143.0570   31.6220  218.0150 O   0  0  0  0  0  0  0  0  0  0  0  0
  142.0190   32.7060  215.3410 C   0  0  0  0  0  0  0  0  0  0  0  0
  142.4250   33.4440  214.0620 C   0  0  0  0  0  0  0  0  0  0  0  0
  141.4170   34.5330  213.6730 C   0  0  0  0  0  0  0  0  0  0  0  0
  143.8100   34.0430  214.2340 C   0  0  0  0  0  0  0  0  0  0  0  0
  2  1  1  1
  3  2  1  0
  4  3  2  0
  5  2  1  0
  6  5  1  0
  5  7  1  6
  8  6  1  0
  9  3  1  0
 10  9  1  0
 11 10  1  0
 12 11  2  0
 10 13  1  6
 14 13  1  0
 15 14  1  0
 16 15  2  0
 17 15  1  0
 18 11  1  0
 19 18  1  0
 20 19  1  0
 21 20  2  0
 19 22  1  1
 23 22  1  0
 24 23  2  0
 25 23  1  0
 26 24  1  0
 27 25  2  0
 28 26  2  0
 28 27  1  0
 29 20  1  0
 30 29  1  0
 31 30  1  0
 32 31  2  0
 30 33  1  6
 34 33  1  0
 35 34  1  0
 36 35  1  0
 37 36  1  0
 38 37  1  0
 39 37  2  0
 40 31  1  0
 41 40  1  1
 42 41  1  0
 43 42  2  0
 44 41  1  0
 45 44  1  0
 46 44  1  0
 47 42  1  0
 48 47  1  1
 49 48  1  0
 50 49  2  0
 51 48  1  0
 52 51  1  0
 53 51  1  0
 55 54  1  6
 56 55  1  0
 57 56  2  0
 58 55  1  0
 59 58  1  0
 60 59  1  0
 61 60  1  0
 63 62  1  1
 64 63  1  0
 65 64  2  0
 66 63  1  0
 67 66  1  0
 68 67  2  0
 69 67  1  0
 70 64  1  0
 71 70  1  0
 72 71  1  0
 73 72  2  0
 71 74  1  6
 75 74  1  0
 76 75  1  0
 77 75  2  0
 78 76  2  0
 79 78  1  0
 79 77  1  0
 80 72  1  0
 81 80  1  0
 82 81  1  0
 83 82  2  0
 81 84  1  6
 85 84  1  0
 86 85  1  0
 87 85  1  0
 89 88  1  6
 90 89  1  0
 91 90  2  0
 92 89  1  0
 93 92  1  0
 94 93  2  0
 95 93  1  0
 96 90  1  0
 97 96  1  0
 98 97  1  0
 99 98  2  0
 97100  1  6
101100  1  0
102101  2  0
103101  1  0
104102  1  0
105103  2  0
106105  1  0
106104  2  0
107106  1  0
109108  1  6
110109  1  0
111110  2  0
112109  1  0
113112  1  0
114113  2  0
115113  1  0
116110  1  0
117116  1  1
118117  1  0
119118  2  0
120117  1  0
121120  1  0
120122  1  1
124123  1  1
125124  1  0
126125  2  0
127124  1  0
128127  1  0
129128  1  0
130129  1  0
131130  1  0
132131  1  0
133131  2  0
135134  1  6
136135  1  0
137136  2  0
138135  1  0
139138  1  0
140139  1  0
141139  1  0
M  END
$$$$
