
     RDKit          3D

154153  0  0  0  0  0  0  0  0999 V2000
  174.6470  -51.3280  334.1640 N   0  0  0  0  0  0  0  0  0  0  0  0
  175.8290  -52.1760  334.1030 C   0  0  2  0  0  0  0  0  0  0  0  0
  177.0810  -51.4180  333.6860 C   0  0  0  0  0  0  0  0  0  0  0  0
  178.1410  -52.0360  333.5350 O   0  0  0  0  0  0  0  0  0  0  0  0
  175.5760  -53.3540  333.1610 C   0  0  0  0  0  0  0  0  0  0  0  0
  174.4180  -54.2220  333.6210 C   0  0  0  0  0  0  0  0  0  0  0  0
  174.1110  -54.2030  334.8330 O   0  0  0  0  0  0  0  0  0  0  0  0
  173.8170  -54.9220  332.7780 O   0  0  0  0  0  0  0  0  0  0  0  0
  176.9820  -50.1010  333.4920 N   0  0  0  0  0  0  0  0  0  0  0  0
  178.1700  -49.2770  333.3110 C   0  0  2  0  0  0  0  0  0  0  0  0
  178.9930  -49.1770  334.5890 C   0  0  0  0  0  0  0  0  0  0  0  0
  180.1770  -48.8320  334.5210 O   0  0  0  0  0  0  0  0  0  0  0  0
  177.7590  -47.8820  332.8240 C   0  0  0  0  0  0  0  0  0  0  0  0
  178.9010  -46.9070  332.6940 C   0  0  0  0  0  0  0  0  0  0  0  0
  179.6110  -46.8100  331.5110 C   0  0  0  0  0  0  0  0  0  0  0  0
  179.2380  -46.0620  333.7400 C   0  0  0  0  0  0  0  0  0  0  0  0
  180.6480  -45.9080  331.3810 C   0  0  0  0  0  0  0  0  0  0  0  0
  180.2760  -45.1620  333.6150 C   0  0  0  0  0  0  0  0  0  0  0  0
  180.9770  -45.0820  332.4320 C   0  0  0  0  0  0  0  0  0  0  0  0
  178.4100  -49.5180  335.7510 N   0  0  0  0  0  0  0  0  0  0  0  0
  179.1030  -49.2800  337.0060 C   0  0  2  0  0  0  0  0  0  0  0  0
  179.4700  -50.5860  337.6910 C   0  0  0  0  0  0  0  0  0  0  0  0
  178.7190  -51.5660  337.6300 O   0  0  0  0  0  0  0  0  0  0  0  0
  178.2460  -48.4730  337.9870 C   0  0  0  0  0  0  0  0  0  0  0  0
  177.8080  -47.1490  337.4620 C   0  0  0  0  0  0  0  0  0  0  0  0
  178.6730  -46.0740  337.4540 C   0  0  0  0  0  0  0  0  0  0  0  0
  176.5160  -46.9760  337.0000 C   0  0  0  0  0  0  0  0  0  0  0  0
  178.2650  -44.8660  336.9800 C   0  0  0  0  0  0  0  0  0  0  0  0
  176.1000  -45.7650  336.5280 C   0  0  0  0  0  0  0  0  0  0  0  0
  176.9720  -44.7090  336.5160 C   0  0  0  0  0  0  0  0  0  0  0  0
  180.6040  -50.6170  338.3750 N   0  0  0  0  0  0  0  0  0  0  0  0
  180.9170  -51.7640  339.2330 C   0  0  2  0  0  0  0  0  0  0  0  0
  179.9430  -51.8810  340.3910 C   0  0  0  0  0  0  0  0  0  0  0  0
  179.0240  -51.0650  340.5280 O   0  0  0  0  0  0  0  0  0  0  0  0
  182.3380  -51.4580  339.7190 C   0  0  0  0  0  0  0  0  0  0  0  0
  182.9010  -50.5340  338.6830 C   0  0  0  0  0  0  0  0  0  0  0  0
  181.7430  -49.6930  338.2490 C   0  0  0  0  0  0  0  0  0  0  0  0
  180.1320  -52.8990  341.2260 N   0  0  0  0  0  0  0  0  0  0  0  0
  179.3240  -53.0460  342.4260 C   0  0  2  0  0  0  0  0  0  0  0  0
  179.7490  -52.0300  343.4840 C   0  0  0  0  0  0  0  0  0  0  0  0
  180.8460  -51.4640  343.4360 O   0  0  0  0  0  0  0  0  0  0  0  0
  179.4380  -54.4680  342.9770 C   0  0  0  0  0  0  0  0  0  0  0  0
  180.7670  -54.7630  343.3650 O   0  0  0  0  0  0  0  0  0  0  0  0
  182.9670  -53.1630  345.1450 N   0  0  0  0  0  0  0  0  0  0  0  0
  184.1320  -52.9130  344.3000 C   0  0  2  0  0  0  0  0  0  0  0  0
  184.5650  -51.4570  344.3880 C   0  0  0  0  0  0  0  0  0  0  0  0
  185.7510  -51.1540  344.5870 O   0  0  0  0  0  0  0  0  0  0  0  0
  183.8190  -53.2880  342.8500 C   0  0  0  0  0  0  0  0  0  0  0  0
  184.0990  -54.7470  342.5470 C   0  0  0  0  0  0  0  0  0  0  0  0
  185.1080  -55.2820  343.0610 O   0  0  0  0  0  0  0  0  0  0  0  0
  183.3070  -55.3550  341.7920 O   0  0  0  0  0  0  0  0  0  0  0  0
  183.6070  -50.5380  344.2440 N   0  0  0  0  0  0  0  0  0  0  0  0
  183.9260  -49.1150  344.2610 C   0  0  2  0  0  0  0  0  0  0  0  0
  184.4500  -48.6780  345.6220 C   0  0  0  0  0  0  0  0  0  0  0  0
  185.3150  -47.7970  345.6980 O   0  0  0  0  0  0  0  0  0  0  0  0
  182.6890  -48.3090  343.8610 C   0  0  0  0  0  0  0  0  0  0  0  0
  182.2150  -48.5800  342.4280 C   0  0  0  0  0  0  0  0  0  0  0  0
  180.7570  -48.2010  342.2420 C   0  0  0  0  0  0  0  0  0  0  0  0
  183.0960  -47.8650  341.4130 C   0  0  0  0  0  0  0  0  0  0  0  0
  188.1120  -49.6270  345.5130 N   0  0  0  0  0  0  0  0  0  0  0  0
  188.9030  -48.6500  344.7640 C   0  0  2  0  0  0  0  0  0  0  0  0
  189.1110  -47.3730  345.5650 C   0  0  0  0  0  0  0  0  0  0  0  0
  190.2360  -46.8680  345.6710 O   0  0  0  0  0  0  0  0  0  0  0  0
  188.2280  -48.3240  343.4340 C   0  0  2  0  0  0  0  0  0  0  0  0
  187.7420  -49.5280  342.8320 O   0  0  0  0  0  0  0  0  0  0  0  0
  189.2140  -47.6460  342.4960 C   0  0  0  0  0  0  0  0  0  0  0  0
  180.3720  -42.9590  343.8510 N   0  0  0  0  0  0  0  0  0  0  0  0
  181.7240  -43.4690  344.0300 C   0  0  2  0  0  0  0  0  0  0  0  0
  182.4580  -43.5860  342.7050 C   0  0  0  0  0  0  0  0  0  0  0  0
  183.6880  -43.4940  342.6700 O   0  0  0  0  0  0  0  0  0  0  0  0
  181.6770  -44.8160  344.7420 C   0  0  0  0  0  0  0  0  0  0  0  0
  181.2530  -44.6970  346.2000 C   0  0  0  0  0  0  0  0  0  0  0  0
  180.4220  -45.8940  346.6220 C   0  0  0  0  0  0  0  0  0  0  0  0
  182.4910  -44.5640  347.0690 C   0  0  0  0  0  0  0  0  0  0  0  0
  181.7320  -43.7830  341.6040 N   0  0  0  0  0  0  0  0  0  0  0  0
  182.3750  -43.7200  340.2970 C   0  0  2  0  0  0  0  0  0  0  0  0
  182.7520  -42.2860  339.9550 C   0  0  0  0  0  0  0  0  0  0  0  0
  183.8930  -42.0070  339.5600 O   0  0  0  0  0  0  0  0  0  0  0  0
  181.4540  -44.3020  339.2220 C   0  0  0  0  0  0  0  0  0  0  0  0
  182.0660  -44.3140  337.8500 C   0  0  0  0  0  0  0  0  0  0  0  0
  182.9240  -45.2450  337.3480 C   0  0  0  0  0  0  0  0  0  0  0  0
  181.8750  -43.3450  336.8100 C   0  0  0  0  0  0  0  0  0  0  0  0
  183.2770  -44.9210  336.0610 N   0  0  0  0  0  0  0  0  0  0  0  0
  182.6450  -43.7600  335.7060 C   0  0  0  0  0  0  0  0  0  0  0  0
  181.1250  -42.1690  336.7050 C   0  0  0  0  0  0  0  0  0  0  0  0
  182.6900  -43.0410  334.5140 C   0  0  0  0  0  0  0  0  0  0  0  0
  181.1680  -41.4570  335.5180 C   0  0  0  0  0  0  0  0  0  0  0  0
  181.9460  -41.8970  334.4390 C   0  0  0  0  0  0  0  0  0  0  0  0
  185.7830  -41.1790  341.6660 N   0  0  0  0  0  0  0  0  0  0  0  0
  186.9750  -41.9890  341.4340 C   0  0  2  0  0  0  0  0  0  0  0  0
  187.5060  -41.7650  340.0260 C   0  0  0  0  0  0  0  0  0  0  0  0
  188.6890  -41.4600  339.8330 O   0  0  0  0  0  0  0  0  0  0  0  0
  186.6820  -43.4750  341.7060 C   0  0  2  0  0  0  0  0  0  0  0  0
  186.6370  -43.7310  343.2090 C   0  0  0  0  0  0  0  0  0  0  0  0
  187.7520  -44.3460  341.0910 C   0  0  0  0  0  0  0  0  0  0  0  0
  186.2260  -45.1280  343.5680 C   0  0  0  0  0  0  0  0  0  0  0  0
  186.6290  -41.8730  339.0280 N   0  0  0  0  0  0  0  0  0  0  0  0
  187.0320  -41.6020  337.6520 C   0  0  2  0  0  0  0  0  0  0  0  0
  187.5430  -40.1720  337.4980 C   0  0  0  0  0  0  0  0  0  0  0  0
  188.6380  -39.9460  336.9640 O   0  0  0  0  0  0  0  0  0  0  0  0
  185.8600  -41.8840  336.7110 C   0  0  0  0  0  0  0  0  0  0  0  0
  184.6260  -41.5670  337.3330 O   0  0  0  0  0  0  0  0  0  0  0  0
  190.9260  -39.9930  335.8320 N   0  0  0  0  0  0  0  0  0  0  0  0
  190.8950  -39.4160  334.4910 C   0  0  2  0  0  0  0  0  0  0  0  0
  190.9500  -37.8960  334.4970 C   0  0  0  0  0  0  0  0  0  0  0  0
  191.3270  -37.2960  333.4840 O   0  0  0  0  0  0  0  0  0  0  0  0
  189.6380  -39.8580  333.7420 C   0  0  0  0  0  0  0  0  0  0  0  0
  189.5370  -41.3380  333.5450 C   0  0  0  0  0  0  0  0  0  0  0  0
  190.6780  -42.1190  333.4650 C   0  0  0  0  0  0  0  0  0  0  0  0
  188.2990  -41.9470  333.4300 C   0  0  0  0  0  0  0  0  0  0  0  0
  190.5850  -43.4790  333.2820 C   0  0  0  0  0  0  0  0  0  0  0  0
  188.1990  -43.3070  333.2460 C   0  0  0  0  0  0  0  0  0  0  0  0
  189.3430  -44.0750  333.1710 C   0  0  0  0  0  0  0  0  0  0  0  0
  183.0480  -36.7650  328.9850 N   0  0  0  0  0  0  0  0  0  0  0  0
  182.5590  -38.0950  328.6440 C   0  0  2  0  0  0  0  0  0  0  0  0
  181.0580  -38.2030  328.8660 C   0  0  0  0  0  0  0  0  0  0  0  0
  180.3290  -38.6790  327.9910 O   0  0  0  0  0  0  0  0  0  0  0  0
  183.2840  -39.1770  329.4390 C   0  0  0  0  0  0  0  0  0  0  0  0
  182.6370  -40.5340  329.2350 C   0  0  0  0  0  0  0  0  0  0  0  0
  182.6910  -41.1650  327.9980 C   0  0  0  0  0  0  0  0  0  0  0  0
  181.9590  -41.1730  330.2680 C   0  0  0  0  0  0  0  0  0  0  0  0
  182.0960  -42.3950  327.7960 C   0  0  0  0  0  0  0  0  0  0  0  0
  181.3610  -42.4060  330.0750 C   0  0  0  0  0  0  0  0  0  0  0  0
  181.4340  -43.0120  328.8360 C   0  0  0  0  0  0  0  0  0  0  0  0
  180.8420  -44.2390  328.6350 O   0  0  0  0  0  0  0  0  0  0  0  0
  182.9220  -44.6670  324.4490 N   0  0  0  0  0  0  0  0  0  0  0  0
  183.5610  -45.4010  325.5300 C   0  0  2  0  0  0  0  0  0  0  0  0
  184.5390  -44.4650  326.2160 C   0  0  0  0  0  0  0  0  0  0  0  0
  185.2890  -43.7380  325.5510 O   0  0  0  0  0  0  0  0  0  0  0  0
  184.2750  -46.6630  325.0070 C   0  0  2  0  0  0  0  0  0  0  0  0
  183.4540  -47.3400  323.9070 C   0  0  0  0  0  0  0  0  0  0  0  0
  184.4900  -47.6550  326.1400 C   0  0  0  0  0  0  0  0  0  0  0  0
  182.1980  -48.0120  324.3960 C   0  0  0  0  0  0  0  0  0  0  0  0
  184.5710  -44.5060  327.5440 N   0  0  0  0  0  0  0  0  0  0  0  0
  185.4940  -43.6590  328.2850 C   0  0  2  0  0  0  0  0  0  0  0  0
  186.7860  -44.4490  328.3680 C   0  0  0  0  0  0  0  0  0  0  0  0
  186.9270  -45.3540  329.1930 O   0  0  0  0  0  0  0  0  0  0  0  0
  184.9350  -43.3330  329.6660 C   0  0  0  0  0  0  0  0  0  0  0  0
  185.8300  -42.6420  330.6960 C   0  0  0  0  0  0  0  0  0  0  0  0
  186.4190  -41.3580  330.1400 C   0  0  0  0  0  0  0  0  0  0  0  0
  185.0490  -42.3750  331.9720 C   0  0  0  0  0  0  0  0  0  0  0  0
  187.7460  -44.0780  327.5320 N   0  0  0  0  0  0  0  0  0  0  0  0
  188.9840  -44.8260  327.4210 C   0  0  2  0  0  0  0  0  0  0  0  0
  189.9540  -44.3520  328.4890 C   0  0  0  0  0  0  0  0  0  0  0  0
  189.9320  -43.1890  328.9040 O   0  0  0  0  0  0  0  0  0  0  0  0
  189.5990  -44.6890  326.0250 C   0  0  0  0  0  0  0  0  0  0  0  0
  189.8480  -43.3410  325.6880 O   0  0  0  0  0  0  0  0  0  0  0  0
  190.7990  -45.2680  328.9470 N   0  0  0  0  0  0  0  0  0  0  0  0
  191.6750  -44.9550  330.0590 C   0  0  2  0  0  0  0  0  0  0  0  0
  192.7510  -43.9700  329.6090 C   0  0  0  0  0  0  0  0  0  0  0  0
  192.8450  -43.5980  328.4340 O   0  0  0  0  0  0  0  0  0  0  0  0
  192.2950  -46.2350  330.6160 C   0  0  2  0  0  0  0  0  0  0  0  0
  192.7420  -47.0610  329.5350 O   0  0  0  0  0  0  0  0  0  0  0  0
  191.2670  -47.0040  331.4290 C   0  0  0  0  0  0  0  0  0  0  0  0
  2  1  1  6
  3  2  1  0
  4  3  2  0
  5  2  1  0
  6  5  1  0
  7  6  2  0
  8  6  1  0
  9  3  1  0
 10  9  1  0
 11 10  1  0
 12 11  2  0
 10 13  1  1
 14 13  1  0
 15 14  2  0
 16 14  1  0
 17 15  1  0
 18 16  2  0
 19 17  2  0
 19 18  1  0
 20 11  1  0
 21 20  1  0
 22 21  1  0
 23 22  2  0
 21 24  1  1
 25 24  1  0
 26 25  2  0
 27 25  1  0
 28 26  1  0
 29 27  2  0
 30 29  1  0
 30 28  2  0
 31 22  1  0
 32 31  1  0
 32 33  1  1
 34 33  2  0
 35 32  1  0
 36 35  1  0
 37 36  1  0
 37 31  1  0
 38 33  1  0
 39 38  1  0
 40 39  1  0
 41 40  2  0
 39 42  1  1
 43 42  1  0
 45 44  1  1
 46 45  1  0
 47 46  2  0
 48 45  1  0
 49 48  1  0
 50 49  2  0
 51 49  1  0
 52 46  1  0
 53 52  1  0
 54 53  1  0
 55 54  2  0
 53 56  1  1
 57 56  1  0
 58 57  1  0
 59 57  1  0
 61 60  1  1
 62 61  1  0
 63 62  2  0
 64 61  1  0
 65 64  1  0
 64 66  1  6
 68 67  1  6
 69 68  1  0
 70 69  2  0
 71 68  1  0
 72 71  1  0
 73 72  1  0
 74 72  1  0
 75 69  1  0
 76 75  1  0
 77 76  1  0
 78 77  2  0
 76 79  1  6
 80 79  1  0
 81 80  2  0
 82 80  1  0
 83 81  1  0
 84 83  1  0
 84 82  2  0
 85 82  1  0
 86 84  1  0
 87 85  2  0
 88 87  1  0
 88 86  2  0
 90 89  1  6
 91 90  1  0
 92 91  2  0
 93 90  1  0
 94 93  1  0
 93 95  1  6
 96 94  1  0
 97 91  1  0
 98 97  1  0
 99 98  1  0
100 99  2  0
 98101  1  6
102101  1  0
104103  1  1
105104  1  0
106105  2  0
107104  1  0
108107  1  0
109108  2  0
110108  1  0
111109  1  0
112110  2  0
113112  1  0
113111  2  0
115114  1  1
116115  1  0
117116  2  0
118115  1  0
119118  1  0
120119  2  0
121119  1  0
122120  1  0
123121  2  0
124123  1  0
124122  2  0
125124  1  0
127126  1  6
128127  1  0
129128  2  0
130127  1  0
131130  1  0
130132  1  1
133131  1  0
134128  1  0
135134  1  0
136135  1  0
137136  2  0
135138  1  1
139138  1  0
140139  1  0
141139  1  0
142136  1  0
143142  1  0
144143  1  0
145144  2  0
143146  1  6
147146  1  0
148144  1  0
149148  1  6
150149  1  0
151150  2  0
152149  1  0
153152  1  0
152154  1  6
M  END
$$$$
