
     RDKit          3D

 89 83  0  0  0  0  0  0  0  0999 V2000
  272.1890   64.3580  -58.2480 N   0  0  0  0  0  0  0  0  0  0  0  0
  270.9260   64.8120  -58.7840 C   0  0  0  0  0  0  0  0  0  0  0  0
  269.6970   64.3470  -58.0390 C   0  0  0  0  0  0  0  0  0  0  0  0
  268.5820   64.5800  -58.5180 O   0  0  0  0  0  0  0  0  0  0  0  0
  269.8590   63.6970  -56.8900 N   0  0  0  0  0  0  0  0  0  0  0  0
  268.7460   63.1610  -56.1230 C   0  0  2  0  0  0  0  0  0  0  0  0
  268.8690   63.6130  -54.6740 C   0  0  0  0  0  0  0  0  0  0  0  0
  269.7610   64.3870  -54.3120 O   0  0  0  0  0  0  0  0  0  0  0  0
  268.6950   61.6310  -56.2200 C   0  0  0  0  0  0  0  0  0  0  0  0
  267.9490   63.1320  -53.8420 N   0  0  0  0  0  0  0  0  0  0  0  0
  267.9600   63.3960  -52.4110 C   0  0  2  0  0  0  0  0  0  0  0  0
  267.5510   62.1280  -51.6760 C   0  0  0  0  0  0  0  0  0  0  0  0
  267.0950   61.1530  -52.2790 O   0  0  0  0  0  0  0  0  0  0  0  0
  267.0310   64.5570  -52.0320 C   0  0  2  0  0  0  0  0  0  0  0  0
  265.8080   64.4560  -52.7720 O   0  0  0  0  0  0  0  0  0  0  0  0
  267.6940   65.8930  -52.3180 C   0  0  0  0  0  0  0  0  0  0  0  0
  265.0450   61.8070  -49.7740 N   0  0  0  0  0  0  0  0  0  0  0  0
  263.6010   61.6240  -49.8620 C   0  0  2  0  0  0  0  0  0  0  0  0
  263.1900   60.9820  -51.1810 C   0  0  0  0  0  0  0  0  0  0  0  0
  262.1820   60.2690  -51.2280 O   0  0  0  0  0  0  0  0  0  0  0  0
  262.8790   62.9590  -49.6710 C   0  0  0  0  0  0  0  0  0  0  0  0
  263.3870   64.0880  -50.5500 C   0  0  0  0  0  0  0  0  0  0  0  0
  264.1720   65.1220  -49.7690 C   0  0  0  0  0  0  0  0  0  0  0  0
  264.6340   64.8010  -48.6540 O   0  0  0  0  0  0  0  0  0  0  0  0
  264.3230   66.2570  -50.2670 O   0  0  0  0  0  0  0  0  0  0  0  0
  263.9510   61.2140  -52.2550 N   0  0  0  0  0  0  0  0  0  0  0  0
  263.6320   60.5830  -53.5330 C   0  0  2  0  0  0  0  0  0  0  0  0
  263.7520   59.0670  -53.4440 C   0  0  0  0  0  0  0  0  0  0  0  0
  262.9770   58.3370  -54.0730 O   0  0  0  0  0  0  0  0  0  0  0  0
  264.5380   61.1320  -54.6350 C   0  0  0  0  0  0  0  0  0  0  0  0
  263.9230   62.1980  -55.5460 C   0  0  0  0  0  0  0  0  0  0  0  0
  263.4480   63.3970  -54.7410 C   0  0  0  0  0  0  0  0  0  0  0  0
  264.9130   62.6250  -56.6170 C   0  0  0  0  0  0  0  0  0  0  0  0
  260.7100   57.4250  -51.1080 N   0  0  0  0  0  0  0  0  0  0  0  0
  259.3910   57.1250  -51.6550 C   0  0  2  0  0  0  0  0  0  0  0  0
  259.2000   55.6410  -51.9400 C   0  0  0  0  0  0  0  0  0  0  0  0
  258.0560   55.1830  -52.0300 O   0  0  0  0  0  0  0  0  0  0  0  0
  259.1510   57.9280  -52.9340 C   0  0  0  0  0  0  0  0  0  0  0  0
  258.7090   59.3430  -52.6910 C   0  0  0  0  0  0  0  0  0  0  0  0
  257.3950   59.6240  -52.3560 C   0  0  0  0  0  0  0  0  0  0  0  0
  259.6040   60.3930  -52.8090 C   0  0  0  0  0  0  0  0  0  0  0  0
  256.9830   60.9250  -52.1340 C   0  0  0  0  0  0  0  0  0  0  0  0
  259.2000   61.6960  -52.5890 C   0  0  0  0  0  0  0  0  0  0  0  0
  257.8870   61.9630  -52.2520 C   0  0  0  0  0  0  0  0  0  0  0  0
  267.7230   57.9020  -62.1930 N   0  0  0  0  0  0  0  0  0  0  0  0
  267.2390   59.1210  -61.5530 C   0  0  2  0  0  0  0  0  0  0  0  0
  265.8440   59.4740  -62.0480 C   0  0  0  0  0  0  0  0  0  0  0  0
  264.9680   59.8420  -61.2550 O   0  0  0  0  0  0  0  0  0  0  0  0
  268.2140   60.2670  -61.8140 C   0  0  0  0  0  0  0  0  0  0  0  0
  268.0480   61.5190  -60.9570 C   0  0  0  0  0  0  0  0  0  0  0  0
  269.3720   61.8580  -60.3080 C   0  0  0  0  0  0  0  0  0  0  0  0
  267.5450   62.6820  -61.7930 C   0  0  0  0  0  0  0  0  0  0  0  0
  263.5250   57.2450  -60.1610 N   0  0  0  0  0  0  0  0  0  0  0  0
  263.2410   57.7070  -58.8060 C   0  0  2  0  0  0  0  0  0  0  0  0
  262.2560   58.8670  -58.8230 C   0  0  0  0  0  0  0  0  0  0  0  0
  261.3230   58.9140  -58.0110 O   0  0  0  0  0  0  0  0  0  0  0  0
  264.5350   58.1170  -58.1040 C   0  0  0  0  0  0  0  0  0  0  0  0
  265.5800   57.0190  -57.9140 C   0  0  0  0  0  0  0  0  0  0  0  0
  266.7580   57.5420  -57.1080 C   0  0  0  0  0  0  0  0  0  0  0  0
  264.9580   55.8020  -57.2490 C   0  0  0  0  0  0  0  0  0  0  0  0
  262.4480   59.8110  -59.7450 N   0  0  0  0  0  0  0  0  0  0  0  0
  261.4980   60.9090  -59.8970 C   0  0  2  0  0  0  0  0  0  0  0  0
  260.1280   60.3700  -60.2880 C   0  0  0  0  0  0  0  0  0  0  0  0
  259.0980   60.7760  -59.7360 O   0  0  0  0  0  0  0  0  0  0  0  0
  262.0160   61.9240  -60.9300 C   0  0  0  0  0  0  0  0  0  0  0  0
  260.9890   63.0170  -61.1610 C   0  0  0  0  0  0  0  0  0  0  0  0
  263.3360   62.5070  -60.4740 C   0  0  0  0  0  0  0  0  0  0  0  0
  258.4500   58.7540  -57.5250 N   0  0  0  0  0  0  0  0  0  0  0  0
  258.0550   59.8280  -56.6330 C   0  0  0  0  0  0  0  0  0  0  0  0
  256.7760   60.5190  -57.0570 C   0  0  0  0  0  0  0  0  0  0  0  0
  256.1400   61.1870  -56.2350 O   0  0  0  0  0  0  0  0  0  0  0  0
  256.4070   60.4080  -58.3360 N   0  0  0  0  0  0  0  0  0  0  0  0
  255.1050   60.8470  -58.8240 C   0  0  2  0  0  0  0  0  0  0  0  0
  254.1170   59.6860  -58.9410 C   0  0  0  0  0  0  0  0  0  0  0  0
  252.9790   59.8870  -59.3790 O   0  0  0  0  0  0  0  0  0  0  0  0
  255.2590   61.5970  -60.1670 C   0  0  0  0  0  0  0  0  0  0  0  0
  254.0070   62.4070  -60.5120 C   0  0  0  0  0  0  0  0  0  0  0  0
  256.4790   62.5090  -60.1270 C   0  0  0  0  0  0  0  0  0  0  0  0
  252.5200   59.9030  -53.9620 N   0  0  0  0  0  0  0  0  0  0  0  0
  252.2920   61.3560  -53.8940 C   0  0  2  0  0  0  0  0  0  0  0  0
  251.1060   61.7570  -54.7660 C   0  0  0  0  0  0  0  0  0  0  0  0
  250.7450   62.9390  -54.7840 O   0  0  0  0  0  0  0  0  0  0  0  0
  253.5190   62.2040  -54.2830 C   0  0  0  0  0  0  0  0  0  0  0  0
  253.5570   63.6030  -53.6950 C   0  0  0  0  0  0  0  0  0  0  0  0
  254.3790   64.5270  -54.5740 C   0  0  0  0  0  0  0  0  0  0  0  0
  255.7120   63.9940  -54.8370 N   0  0  0  0  0  0  0  0  0  0  0  0
  256.4920   64.3940  -55.8360 C   0  0  0  0  0  0  0  0  0  0  0  0
  256.0700   65.3300  -56.6750 N   0  0  0  0  0  0  0  0  0  0  0  0
  257.6920   63.8540  -56.0000 N   0  0  0  0  0  0  0  0  0  0  0  0
  2  1  1  0
  3  2  1  0
  4  3  2  0
  5  3  1  0
  6  5  1  0
  7  6  1  0
  8  7  2  0
  6  9  1  1
 10  7  1  0
 11 10  1  6
 12 11  1  0
 13 12  2  0
 14 11  1  0
 15 14  1  0
 14 16  1  6
 18 17  1  6
 19 18  1  0
 20 19  2  0
 21 18  1  0
 22 21  1  0
 23 22  1  0
 24 23  2  0
 25 23  1  0
 26 19  1  0
 27 26  1  0
 28 27  1  0
 29 28  2  0
 27 30  1  6
 31 30  1  0
 32 31  1  0
 33 31  1  0
 35 34  1  6
 36 35  1  0
 37 36  2  0
 38 35  1  0
 39 38  1  0
 40 39  2  0
 41 39  1  0
 42 40  1  0
 43 41  2  0
 44 43  1  0
 44 42  2  0
 46 45  1  6
 47 46  1  0
 48 47  2  0
 49 46  1  0
 50 49  1  0
 51 50  1  0
 52 50  1  0
 54 53  1  6
 55 54  1  0
 56 55  2  0
 57 54  1  0
 58 57  1  0
 59 58  1  0
 60 58  1  0
 61 55  1  0
 62 61  1  6
 63 62  1  0
 64 63  2  0
 65 62  1  0
 66 65  1  0
 67 65  1  0
 69 68  1  0
 70 69  1  0
 71 70  2  0
 72 70  1  0
 73 72  1  6
 74 73  1  0
 75 74  2  0
 76 73  1  0
 77 76  1  0
 78 76  1  0
 80 79  1  6
 81 80  1  0
 82 81  2  0
 83 80  1  0
 84 83  1  0
 85 84  1  0
 86 85  1  0
 87 86  1  0
 88 87  1  0
 89 87  2  0
M  END
$$$$
