
     RDKit          3D

 96 93  0  0  0  0  0  0  0  0999 V2000
    0.0570  -11.9390   -3.2850 N   0  0  0  0  0  0  0  0  0  0  0  0
   -0.0650  -10.6850   -2.5410 C   0  0  2  0  0  0  0  0  0  0  0  0
    1.0450  -10.4370   -1.5310 C   0  0  0  0  0  0  0  0  0  0  0  0
    1.3400   -9.2710   -1.2980 O   0  0  0  0  0  0  0  0  0  0  0  0
   -1.4140  -10.5610   -1.8400 C   0  0  2  0  0  0  0  0  0  0  0  0
   -1.5300  -11.5850   -0.8600 O   0  0  0  0  0  0  0  0  0  0  0  0
   -2.5780  -10.6010   -2.7900 C   0  0  0  0  0  0  0  0  0  0  0  0
    1.6470  -11.5020   -0.9150 N   0  0  0  0  0  0  0  0  0  0  0  0
    2.7240  -11.3590    0.0900 C   0  0  2  0  0  0  0  0  0  0  0  0
    4.0000  -10.6510   -0.4150 C   0  0  0  0  0  0  0  0  0  0  0  0
    4.7140   -9.9930    0.3660 O   0  0  0  0  0  0  0  0  0  0  0  0
    3.0580  -12.6930    0.7220 C   0  0  0  0  0  0  0  0  0  0  0  0
    4.2260  -10.7250   -1.7420 N   0  0  0  0  0  0  0  0  0  0  0  0
    5.3630  -10.1050   -2.4390 C   0  0  2  0  0  0  0  0  0  0  0  0
    5.2880   -8.5840   -2.5100 C   0  0  0  0  0  0  0  0  0  0  0  0
    6.3270   -7.9420   -2.6670 O   0  0  0  0  0  0  0  0  0  0  0  0
    5.5350  -10.6750   -3.8620 C   0  0  0  0  0  0  0  0  0  0  0  0
    5.7040  -12.1890   -4.0120 C   0  0  0  0  0  0  0  0  0  0  0  0
    5.8400  -12.5660   -5.4670 C   0  0  0  0  0  0  0  0  0  0  0  0
    6.9000  -12.7060   -3.2190 C   0  0  0  0  0  0  0  0  0  0  0  0
    4.0800   -8.0160   -2.3840 N   0  0  0  0  0  0  0  0  0  0  0  0
    3.8140   -6.5910   -2.5200 C   0  0  2  0  0  0  0  0  0  0  0  0
    4.8490   -5.6460   -1.9060 C   0  0  0  0  0  0  0  0  0  0  0  0
    5.3730   -4.7900   -2.6250 O   0  0  0  0  0  0  0  0  0  0  0  0
    2.3330   -6.2690   -2.2910 C   0  0  2  0  0  0  0  0  0  0  0  0
    1.5800   -6.9550   -3.2920 O   0  0  0  0  0  0  0  0  0  0  0  0
    2.0210   -4.7850   -2.3740 C   0  0  0  0  0  0  0  0  0  0  0  0
    5.1850   -5.8280   -0.6320 N   0  0  0  0  0  0  0  0  0  0  0  0
    6.1690   -4.9810    0.0560 C   0  0  2  0  0  0  0  0  0  0  0  0
    7.5380   -5.0200   -0.6140 C   0  0  0  0  0  0  0  0  0  0  0  0
    8.1890   -3.9710   -0.7990 O   0  0  0  0  0  0  0  0  0  0  0  0
    6.1480   -5.3070    1.5550 C   0  0  2  0  0  0  0  0  0  0  0  0
    5.2060   -4.4070    2.1050 O   0  0  0  0  0  0  0  0  0  0  0  0
    7.4790   -5.1250    2.2370 C   0  0  0  0  0  0  0  0  0  0  0  0
    9.5300   -2.1500   -2.4720 N   0  0  0  0  0  0  0  0  0  0  0  0
   10.9130   -1.8790   -2.0790 C   0  0  2  0  0  0  0  0  0  0  0  0
   11.9230   -2.0360   -3.2110 C   0  0  0  0  0  0  0  0  0  0  0  0
   12.9550   -1.3690   -3.1730 O   0  0  0  0  0  0  0  0  0  0  0  0
   11.3170   -2.6750   -0.8400 C   0  0  0  0  0  0  0  0  0  0  0  0
   10.8740   -2.0180    0.4590 C   0  0  0  0  0  0  0  0  0  0  0  0
   11.1530   -2.9120    1.6690 C   0  0  0  0  0  0  0  0  0  0  0  0
   10.5580   -2.3490    2.9450 C   0  0  0  0  0  0  0  0  0  0  0  0
   10.3690   -3.3990    3.9830 N   0  0  0  0  0  0  0  0  0  0  0  0
   -3.1060    2.4030   -3.3730 N   0  0  0  0  0  0  0  0  0  0  0  0
   -3.6100    2.5540   -2.0210 C   0  0  2  0  0  0  0  0  0  0  0  0
   -4.9770    3.2500   -2.1410 C   0  0  0  0  0  0  0  0  0  0  0  0
   -5.0690    4.4830   -2.2080 O   0  0  0  0  0  0  0  0  0  0  0  0
   -2.5870    3.2130   -1.0420 C   0  0  2  0  0  0  0  0  0  0  0  0
   -1.2320    2.4440   -1.0510 C   0  0  0  0  0  0  0  0  0  0  0  0
   -3.1650    3.2740    0.3840 C   0  0  0  0  0  0  0  0  0  0  0  0
    0.0360    3.2360   -0.6510 C   0  0  0  0  0  0  0  0  0  0  0  0
   -7.7450    2.5320    2.9210 N   0  0  0  0  0  0  0  0  0  0  0  0
   -6.6640    2.1420    3.8410 C   0  0  2  0  0  0  0  0  0  0  0  0
   -6.0750    0.7770    3.4220 C   0  0  0  0  0  0  0  0  0  0  0  0
   -5.4810    0.0540    4.2320 O   0  0  0  0  0  0  0  0  0  0  0  0
   -7.1820    2.1370    5.2900 C   0  0  0  0  0  0  0  0  0  0  0  0
   -7.4730    3.5230    5.8240 C   0  0  0  0  0  0  0  0  0  0  0  0
   -6.5650    4.3390    6.0380 O   0  0  0  0  0  0  0  0  0  0  0  0
   -8.7480    3.8270    6.0400 N   0  0  0  0  0  0  0  0  0  0  0  0
   -6.2330    0.4530    2.1290 N   0  0  0  0  0  0  0  0  0  0  0  0
   -5.8230   -0.8150    1.5380 C   0  0  2  0  0  0  0  0  0  0  0  0
   -5.0810   -0.6480    0.2240 C   0  0  0  0  0  0  0  0  0  0  0  0
   -5.4270    0.2120   -0.5800 O   0  0  0  0  0  0  0  0  0  0  0  0
   -7.0600   -1.7030    1.2810 C   0  0  0  0  0  0  0  0  0  0  0  0
   -7.8450   -2.1850    2.4800 C   0  0  0  0  0  0  0  0  0  0  0  0
   -9.0140   -1.2810    2.7340 C   0  0  0  0  0  0  0  0  0  0  0  0
   -8.3270   -3.6030    2.2710 C   0  0  0  0  0  0  0  0  0  0  0  0
   -4.1420   -1.5730   -0.0370 N   0  0  0  0  0  0  0  0  0  0  0  0
   -3.3760   -1.6430   -1.2770 C   0  0  2  0  0  0  0  0  0  0  0  0
   -3.9530   -2.7860   -2.1350 C   0  0  0  0  0  0  0  0  0  0  0  0
   -3.7900   -3.9490   -1.7660 O   0  0  0  0  0  0  0  0  0  0  0  0
   -1.8910   -1.8910   -0.9600 C   0  0  0  0  0  0  0  0  0  0  0  0
   -0.9590   -1.8160   -2.1440 C   0  0  0  0  0  0  0  0  0  0  0  0
   -0.0390   -0.7820   -2.2560 C   0  0  0  0  0  0  0  0  0  0  0  0
   -0.9910   -2.7880   -3.1440 C   0  0  0  0  0  0  0  0  0  0  0  0
    0.8260   -0.7140   -3.3490 C   0  0  0  0  0  0  0  0  0  0  0  0
   -0.1450   -2.7050   -4.2510 C   0  0  0  0  0  0  0  0  0  0  0  0
    0.7770   -1.6850   -4.3310 C   0  0  0  0  0  0  0  0  0  0  0  0
   -4.6150   -2.4600   -3.2720 N   0  0  0  0  0  0  0  0  0  0  0  0
   -5.1900   -3.4820   -4.1710 C   0  0  2  0  0  0  0  0  0  0  0  0
   -4.2630   -3.9040   -5.3400 C   0  0  0  0  0  0  0  0  0  0  0  0
   -3.8400   -3.0570   -6.1360 O   0  0  0  0  0  0  0  0  0  0  0  0
   -6.6130   -3.1170   -4.6520 C   0  0  0  0  0  0  0  0  0  0  0  0
   -6.7270   -1.8060   -5.4590 C   0  0  0  0  0  0  0  0  0  0  0  0
   -7.0140   -2.0440   -6.9680 C   0  0  0  0  0  0  0  0  0  0  0  0
   -6.6620   -0.8450   -7.8330 C   0  0  0  0  0  0  0  0  0  0  0  0
   -7.2180   -0.9370   -9.2120 N   0  0  0  0  0  0  0  0  0  0  0  0
   -3.9120   -5.2040   -5.4080 N   0  0  0  0  0  0  0  0  0  0  0  0
   -3.0650   -5.7250   -6.4760 C   0  0  2  0  0  0  0  0  0  0  0  0
   -3.9550   -5.7800   -7.7040 C   0  0  0  0  0  0  0  0  0  0  0  0
   -4.9250   -6.5370   -7.7370 O   0  0  0  0  0  0  0  0  0  0  0  0
   -2.5040   -7.1150   -6.1310 C   0  0  0  0  0  0  0  0  0  0  0  0
   -1.4290   -7.1290   -5.0680 C   0  0  0  0  0  0  0  0  0  0  0  0
   -1.9140   -7.0360   -3.6350 C   0  0  0  0  0  0  0  0  0  0  0  0
   -3.1380   -7.1540   -3.4010 O   0  0  0  0  0  0  0  0  0  0  0  0
   -1.0590   -6.8780   -2.7350 O   0  0  0  0  0  0  0  0  0  0  0  0
  2  1  1  1
  3  2  1  0
  4  3  2  0
  5  2  1  0
  6  5  1  0
  5  7  1  6
  8  3  1  0
  9  8  1  0
 10  9  1  0
 11 10  2  0
  9 12  1  6
 13 10  1  0
 14 13  1  0
 15 14  1  0
 16 15  2  0
 14 17  1  6
 18 17  1  0
 19 18  1  0
 20 18  1  0
 21 15  1  0
 22 21  1  1
 23 22  1  0
 24 23  2  0
 25 22  1  0
 26 25  1  0
 25 27  1  6
 28 23  1  0
 29 28  1  6
 30 29  1  0
 31 30  2  0
 32 29  1  0
 33 32  1  0
 32 34  1  1
 36 35  1  6
 37 36  1  0
 38 37  2  0
 39 36  1  0
 40 39  1  0
 41 40  1  0
 42 41  1  0
 43 42  1  0
 45 44  1  6
 46 45  1  0
 47 46  2  0
 48 45  1  0
 49 48  1  0
 48 50  1  1
 51 49  1  0
 53 52  1  6
 54 53  1  0
 55 54  2  0
 56 53  1  0
 57 56  1  0
 58 57  2  0
 59 57  1  0
 60 54  1  0
 61 60  1  0
 62 61  1  0
 63 62  2  0
 61 64  1  6
 65 64  1  0
 66 65  1  0
 67 65  1  0
 68 62  1  0
 69 68  1  0
 70 69  1  0
 71 70  2  0
 69 72  1  1
 73 72  1  0
 74 73  2  0
 75 73  1  0
 76 74  1  0
 77 75  2  0
 78 77  1  0
 78 76  2  0
 79 70  1  0
 80 79  1  0
 81 80  1  0
 82 81  2  0
 80 83  1  6
 84 83  1  0
 85 84  1  0
 86 85  1  0
 87 86  1  0
 88 81  1  0
 89 88  1  0
 90 89  1  0
 91 90  2  0
 89 92  1  1
 93 92  1  0
 94 93  1  0
 95 94  2  0
 96 94  1  0
M  END
$$$$
