
     RDKit          3D

146143  0  0  0  0  0  0  0  0999 V2000
  149.9500  160.3040  126.3470 N   0  0  0  0  0  0  0  0  0  0  0  0
  150.7930  159.1290  126.4650 C   0  0  2  0  0  0  0  0  0  0  0  0
  150.0570  157.9160  127.0030 C   0  0  0  0  0  0  0  0  0  0  0  0
  150.7010  156.9170  127.3280 O   0  0  0  0  0  0  0  0  0  0  0  0
  151.9970  159.4300  127.3560 C   0  0  0  0  0  0  0  0  0  0  0  0
  148.7310  157.9670  127.1010 N   0  0  0  0  0  0  0  0  0  0  0  0
  147.9840  156.8260  127.6070 C   0  0  2  0  0  0  0  0  0  0  0  0
  147.5570  155.8650  126.5080 C   0  0  0  0  0  0  0  0  0  0  0  0
  147.0910  154.7650  126.8210 O   0  0  0  0  0  0  0  0  0  0  0  0
  146.7550  157.2930  128.3920 C   0  0  2  0  0  0  0  0  0  0  0  0
  146.1780  156.1750  129.0760 O   0  0  0  0  0  0  0  0  0  0  0  0
  145.7160  157.8970  127.4700 C   0  0  0  0  0  0  0  0  0  0  0  0
  147.7000  156.2410  125.2420 N   0  0  0  0  0  0  0  0  0  0  0  0
  147.4750  155.3030  124.1630 C   0  0  0  0  0  0  0  0  0  0  0  0
  148.7780  154.6720  123.7220 C   0  0  0  0  0  0  0  0  0  0  0  0
  148.8470  153.4740  123.4370 O   0  0  0  0  0  0  0  0  0  0  0  0
  149.8190  155.4960  123.6630 N   0  0  0  0  0  0  0  0  0  0  0  0
  151.1830  155.0710  123.3950 C   0  0  2  0  0  0  0  0  0  0  0  0
  152.0910  156.1380  123.9750 C   0  0  0  0  0  0  0  0  0  0  0  0
  151.7580  157.3190  123.9160 O   0  0  0  0  0  0  0  0  0  0  0  0
  151.4500  154.9150  121.8930 C   0  0  0  0  0  0  0  0  0  0  0  0
  152.7880  154.2470  121.5970 C   0  0  0  0  0  0  0  0  0  0  0  0
  153.4740  153.7740  122.5020 O   0  0  0  0  0  0  0  0  0  0  0  0
  153.1810  154.2470  120.3300 N   0  0  0  0  0  0  0  0  0  0  0  0
  153.2280  155.7270  124.5300 N   0  0  0  0  0  0  0  0  0  0  0  0
  154.1910  156.7100  125.0040 C   0  0  2  0  0  0  0  0  0  0  0  0
  155.3110  156.8340  123.9810 C   0  0  0  0  0  0  0  0  0  0  0  0
  156.1430  155.9200  123.8670 O   0  0  0  0  0  0  0  0  0  0  0  0
  154.7540  156.3140  126.3710 C   0  0  0  0  0  0  0  0  0  0  0  0
  155.5080  157.4490  127.0490 C   0  0  0  0  0  0  0  0  0  0  0  0
  155.6050  158.5510  126.5230 O   0  0  0  0  0  0  0  0  0  0  0  0
  156.0470  157.1750  128.2240 N   0  0  0  0  0  0  0  0  0  0  0  0
  158.8980  158.0210  122.8970 N   0  0  0  0  0  0  0  0  0  0  0  0
  160.1450  158.3310  123.5860 C   0  0  2  0  0  0  0  0  0  0  0  0
  160.0730  158.0130  125.0740 C   0  0  0  0  0  0  0  0  0  0  0  0
  159.8160  158.9070  125.8810 O   0  0  0  0  0  0  0  0  0  0  0  0
  160.5840  159.7750  123.3470 C   0  0  0  0  0  0  0  0  0  0  0  0
  161.0440  160.1440  121.6410 S   0  0  0  0  0  0  0  0  0  0  0  0
  160.2390  156.7360  125.4380 N   0  0  0  0  0  0  0  0  0  0  0  0
  160.2070  156.2790  126.8250 C   0  0  2  0  0  0  0  0  0  0  0  0
  161.3210  156.8650  127.6880 C   0  0  0  0  0  0  0  0  0  0  0  0
  162.0610  157.7450  127.2330 O   0  0  0  0  0  0  0  0  0  0  0  0
  160.2800  154.7500  126.9000 C   0  0  0  0  0  0  0  0  0  0  0  0
  161.5370  154.1640  126.2640 C   0  0  0  0  0  0  0  0  0  0  0  0
  162.3460  154.8650  125.6810 O   0  0  0  0  0  0  0  0  0  0  0  0
  161.7170  152.8640  126.4230 N   0  0  0  0  0  0  0  0  0  0  0  0
  161.4290  156.3650  128.9270 N   0  0  0  0  0  0  0  0  0  0  0  0
  162.1330  156.9890  130.0550 C   0  0  2  0  0  0  0  0  0  0  0  0
  161.4700  158.3000  130.4590 C   0  0  0  0  0  0  0  0  0  0  0  0
  162.1390  159.2040  130.9510 O   0  0  0  0  0  0  0  0  0  0  0  0
  163.6280  157.2370  129.7870 C   0  0  0  0  0  0  0  0  0  0  0  0
  164.4710  156.0270  129.4940 C   0  0  0  0  0  0  0  0  0  0  0  0
  164.1990  154.8070  130.0680 C   0  0  0  0  0  0  0  0  0  0  0  0
  165.4950  156.0990  128.5690 C   0  0  0  0  0  0  0  0  0  0  0  0
  164.9680  153.7100  129.7830 C   0  0  0  0  0  0  0  0  0  0  0  0
  166.2610  155.0110  128.2730 C   0  0  0  0  0  0  0  0  0  0  0  0
  165.9920  153.8180  128.8790 C   0  0  0  0  0  0  0  0  0  0  0  0
  166.7570  152.7190  128.5810 O   0  0  0  0  0  0  0  0  0  0  0  0
  160.1550  158.4140  130.2900 N   0  0  0  0  0  0  0  0  0  0  0  0
  159.4670  159.6880  130.4450 C   0  0  2  0  0  0  0  0  0  0  0  0
  158.5790  159.7890  131.6740 C   0  0  0  0  0  0  0  0  0  0  0  0
  158.5940  160.8350  132.3270 O   0  0  0  0  0  0  0  0  0  0  0  0
  158.6300  159.9860  129.2050 C   0  0  0  0  0  0  0  0  0  0  0  0
  157.8050  158.7430  131.9950 N   0  0  0  0  0  0  0  0  0  0  0  0
  156.8280  158.6890  133.1000 C   0  0  2  0  0  0  0  0  0  0  0  0
  155.7750  159.7960  132.9540 C   0  0  0  0  0  0  0  0  0  0  0  0
  155.7290  160.7780  133.6930 O   0  0  0  0  0  0  0  0  0  0  0  0
  157.5120  158.7290  134.4730 C   0  0  2  0  0  0  0  0  0  0  0  0
  158.5730  157.7740  134.4890 O   0  0  0  0  0  0  0  0  0  0  0  0
  156.5480  158.3250  135.5650 C   0  0  0  0  0  0  0  0  0  0  0  0
  149.7770  155.4800  135.7600 N   0  0  0  0  0  0  0  0  0  0  0  0
  150.0050  154.0430  135.7590 C   0  0  2  0  0  0  0  0  0  0  0  0
  151.4660  153.6950  135.5410 C   0  0  0  0  0  0  0  0  0  0  0  0
  151.9350  152.6910  136.0730 O   0  0  0  0  0  0  0  0  0  0  0  0
  149.1740  153.3670  134.6780 C   0  0  0  0  0  0  0  0  0  0  0  0
  147.6930  153.2970  134.9330 C   0  0  0  0  0  0  0  0  0  0  0  0
  146.9340  154.5140  134.4600 C   0  0  0  0  0  0  0  0  0  0  0  0
  147.5520  155.5040  134.0250 O   0  0  0  0  0  0  0  0  0  0  0  0
  145.6910  154.4500  134.4640 O   0  0  0  0  0  0  0  0  0  0  0  0
  152.1940  154.4950  134.7580 N   0  0  0  0  0  0  0  0  0  0  0  0
  153.6140  154.2400  134.5480 C   0  0  2  0  0  0  0  0  0  0  0  0
  154.4160  154.4900  135.8060 C   0  0  0  0  0  0  0  0  0  0  0  0
  155.3980  153.7940  136.0570 O   0  0  0  0  0  0  0  0  0  0  0  0
  154.1550  155.0990  133.4130 C   0  0  0  0  0  0  0  0  0  0  0  0
  153.7210  154.6540  132.0550 C   0  0  0  0  0  0  0  0  0  0  0  0
  154.1020  155.6360  130.9790 C   0  0  0  0  0  0  0  0  0  0  0  0
  154.6640  156.6910  131.3140 O   0  0  0  0  0  0  0  0  0  0  0  0
  153.8090  155.3730  129.7990 O   0  0  0  0  0  0  0  0  0  0  0  0
  154.0370  155.4960  136.5890 N   0  0  0  0  0  0  0  0  0  0  0  0
  154.6710  155.6950  137.8830 C   0  0  2  0  0  0  0  0  0  0  0  0
  154.3670  154.5470  138.8180 C   0  0  0  0  0  0  0  0  0  0  0  0
  155.2230  154.1320  139.5950 O   0  0  0  0  0  0  0  0  0  0  0  0
  154.1970  156.9980  138.5150 C   0  0  0  0  0  0  0  0  0  0  0  0
  154.7220  157.2180  139.9130 C   0  0  0  0  0  0  0  0  0  0  0  0
  156.0340  157.5890  140.1280 C   0  0  0  0  0  0  0  0  0  0  0  0
  153.9030  157.0580  141.0150 C   0  0  0  0  0  0  0  0  0  0  0  0
  156.5080  157.7920  141.3880 C   0  0  0  0  0  0  0  0  0  0  0  0
  154.3740  157.2470  142.2760 C   0  0  0  0  0  0  0  0  0  0  0  0
  155.6750  157.6210  142.4560 C   0  0  0  0  0  0  0  0  0  0  0  0
  156.1560  157.8200  143.7220 O   0  0  0  0  0  0  0  0  0  0  0  0
  153.3500  151.2970  138.3460 N   0  0  0  0  0  0  0  0  0  0  0  0
  153.9450  149.9990  138.0490 C   0  0  2  0  0  0  0  0  0  0  0  0
  155.4410  150.0270  138.3010 C   0  0  0  0  0  0  0  0  0  0  0  0
  156.0170  149.0400  138.7650 O   0  0  0  0  0  0  0  0  0  0  0  0
  153.6090  149.6040  136.6010 C   0  0  0  0  0  0  0  0  0  0  0  0
  154.2820  148.3260  136.1820 C   0  0  0  0  0  0  0  0  0  0  0  0
  152.1450  149.4310  136.4600 C   0  0  0  0  0  0  0  0  0  0  0  0
  156.0810  151.1660  138.0530 N   0  0  0  0  0  0  0  0  0  0  0  0
  157.5090  151.3390  138.2820 C   0  0  2  0  0  0  0  0  0  0  0  0
  157.8800  151.2350  139.7510 C   0  0  0  0  0  0  0  0  0  0  0  0
  159.0160  150.8850  140.0680 O   0  0  0  0  0  0  0  0  0  0  0  0
  157.9270  152.6910  137.7230 C   0  0  0  0  0  0  0  0  0  0  0  0
  159.3910  152.9240  137.5720 C   0  0  0  0  0  0  0  0  0  0  0  0
  159.6500  154.2800  136.9580 C   0  0  0  0  0  0  0  0  0  0  0  0
  159.8680  154.1720  135.4670 C   0  0  0  0  0  0  0  0  0  0  0  0
  158.5990  154.0560  134.7280 N   0  0  0  0  0  0  0  0  0  0  0  0
  153.4390  148.4600  142.1830 N   0  0  0  0  0  0  0  0  0  0  0  0
  152.0810  148.4440  142.7110 C   0  0  2  0  0  0  0  0  0  0  0  0
  151.1590  147.8290  141.6700 C   0  0  0  0  0  0  0  0  0  0  0  0
  151.2050  148.2000  140.4940 O   0  0  0  0  0  0  0  0  0  0  0  0
  151.6240  149.8600  143.1000 C   0  0  2  0  0  0  0  0  0  0  0  0
  152.4970  150.4010  144.2300 C   0  0  0  0  0  0  0  0  0  0  0  0
  150.1790  149.8740  143.5220 C   0  0  0  0  0  0  0  0  0  0  0  0
  152.2770  151.8320  144.5480 C   0  0  0  0  0  0  0  0  0  0  0  0
  150.3440  146.8680  142.0990 N   0  0  0  0  0  0  0  0  0  0  0  0
  149.3780  146.2190  141.2250 C   0  0  2  0  0  0  0  0  0  0  0  0
  148.2960  147.2100  140.8110 C   0  0  0  0  0  0  0  0  0  0  0  0
  147.8520  148.0290  141.6130 O   0  0  0  0  0  0  0  0  0  0  0  0
  148.7640  145.0330  141.9620 C   0  0  0  0  0  0  0  0  0  0  0  0
  148.0350  144.0780  141.0490 C   0  0  0  0  0  0  0  0  0  0  0  0
  148.0210  144.2940  139.8240 O   0  0  0  0  0  0  0  0  0  0  0  0
  147.4620  143.0990  141.5670 O   0  0  0  0  0  0  0  0  0  0  0  0
  147.8720  147.1430  139.5520 N   0  0  0  0  0  0  0  0  0  0  0  0
  146.8800  148.0750  139.0290 C   0  0  2  0  0  0  0  0  0  0  0  0
  145.4600  147.5450  139.1110 C   0  0  0  0  0  0  0  0  0  0  0  0
  144.5330  148.2300  138.6770 O   0  0  0  0  0  0  0  0  0  0  0  0
  147.1820  148.4360  137.5760 C   0  0  0  0  0  0  0  0  0  0  0  0
  148.4890  149.1330  137.2370 C   0  0  0  0  0  0  0  0  0  0  0  0
  148.5010  149.4400  135.7730 C   0  0  0  0  0  0  0  0  0  0  0  0
  148.6810  150.3740  138.0550 C   0  0  0  0  0  0  0  0  0  0  0  0
  145.2720  146.3450  139.6240 N   0  0  0  0  0  0  0  0  0  0  0  0
  143.9640  145.7490  139.7910 C   0  0  2  0  0  0  0  0  0  0  0  0
  143.2820  146.3320  141.0260 C   0  0  0  0  0  0  0  0  0  0  0  0
  143.9430  146.9160  141.8810 O   0  0  0  0  0  0  0  0  0  0  0  0
  144.1220  144.2380  139.9030 C   0  0  0  0  0  0  0  0  0  0  0  0
  144.8910  143.8950  141.0340 O   0  0  0  0  0  0  0  0  0  0  0  0
  2  1  1  0
  3  2  1  0
  4  3  2  0
  2  5  1  1
  6  3  1  0
  7  6  1  6
  8  7  1  0
  9  8  2  0
 10  7  1  0
 11 10  1  0
 10 12  1  6
 13  8  1  0
 14 13  1  0
 15 14  1  0
 16 15  2  0
 17 15  1  0
 18 17  1  0
 19 18  1  0
 20 19  2  0
 18 21  1  6
 22 21  1  0
 23 22  2  0
 24 22  1  0
 25 19  1  0
 26 25  1  0
 27 26  1  0
 28 27  2  0
 26 29  1  1
 30 29  1  0
 31 30  2  0
 32 30  1  0
 34 33  1  1
 35 34  1  0
 36 35  2  0
 37 34  1  0
 38 37  1  0
 39 35  1  0
 40 39  1  0
 41 40  1  0
 42 41  2  0
 40 43  1  6
 44 43  1  0
 45 44  2  0
 46 44  1  0
 47 41  1  0
 48 47  1  0
 49 48  1  0
 50 49  2  0
 48 51  1  6
 52 51  1  0
 53 52  2  0
 54 52  1  0
 55 53  1  0
 56 54  2  0
 57 56  1  0
 57 55  2  0
 58 57  1  0
 59 49  1  0
 60 59  1  0
 61 60  1  0
 62 61  2  0
 60 63  1  6
 64 61  1  0
 65 64  1  6
 66 65  1  0
 67 66  2  0
 68 65  1  0
 69 68  1  0
 68 70  1  1
 72 71  1  6
 73 72  1  0
 74 73  2  0
 75 72  1  0
 76 75  1  0
 77 76  1  0
 78 77  2  0
 79 77  1  0
 80 73  1  0
 81 80  1  0
 82 81  1  0
 83 82  2  0
 81 84  1  6
 85 84  1  0
 86 85  1  0
 87 86  2  0
 88 86  1  0
 89 82  1  0
 90 89  1  0
 91 90  1  0
 92 91  2  0
 90 93  1  1
 94 93  1  0
 95 94  2  0
 96 94  1  0
 97 95  1  0
 98 96  2  0
 99 97  2  0
 99 98  1  0
100 99  1  0
102101  1  6
103102  1  0
104103  2  0
105102  1  0
106105  1  0
107105  1  0
108103  1  0
109108  1  0
110109  1  0
111110  2  0
109112  1  1
113112  1  0
114113  1  0
115114  1  0
116115  1  0
118117  1  6
119118  1  0
120119  2  0
121118  1  0
122121  1  0
121123  1  1
124122  1  0
125119  1  0
126125  1  0
127126  1  0
128127  2  0
126129  1  1
130129  1  0
131130  2  0
132130  1  0
133127  1  0
134133  1  0
135134  1  0
136135  2  0
134137  1  6
138137  1  0
139138  1  0
140138  1  0
141135  1  0
142141  1  0
143142  1  0
144143  2  0
142145  1  1
146145  1  0
M  END
$$$$
