
     RDKit          3D

112109  0  0  0  0  0  0  0  0999 V2000
   10.3310  -70.8460   29.5400 N   0  0  0  0  0  0  0  0  0  0  0  0
    9.9500  -72.0070   28.7420 C   0  0  2  0  0  0  0  0  0  0  0  0
    8.4490  -72.0480   28.4890 C   0  0  0  0  0  0  0  0  0  0  0  0
    8.0120  -72.4950   27.4220 O   0  0  0  0  0  0  0  0  0  0  0  0
   10.4110  -73.2960   29.4220 C   0  0  0  0  0  0  0  0  0  0  0  0
   10.1920  -74.5400   28.5720 C   0  0  0  0  0  0  0  0  0  0  0  0
   10.5350  -75.8240   29.2990 C   0  0  0  0  0  0  0  0  0  0  0  0
   11.2750  -75.8170   30.2820 O   0  0  0  0  0  0  0  0  0  0  0  0
    9.9920  -76.9370   28.8180 N   0  0  0  0  0  0  0  0  0  0  0  0
    7.6440  -71.5870   29.4490 N   0  0  0  0  0  0  0  0  0  0  0  0
    6.2030  -71.5330   29.2340 C   0  0  2  0  0  0  0  0  0  0  0  0
    5.8360  -70.5320   28.1460 C   0  0  0  0  0  0  0  0  0  0  0  0
    4.8310  -70.7160   27.4510 O   0  0  0  0  0  0  0  0  0  0  0  0
    5.4890  -71.1870   30.5410 C   0  0  0  0  0  0  0  0  0  0  0  0
    6.6390  -69.4790   27.9770 N   0  0  0  0  0  0  0  0  0  0  0  0
    6.3550  -68.4710   26.9610 C   0  0  2  0  0  0  0  0  0  0  0  0
    6.6460  -68.9980   25.5620 C   0  0  0  0  0  0  0  0  0  0  0  0
    5.7550  -69.0510   24.7070 O   0  0  0  0  0  0  0  0  0  0  0  0
    7.1750  -67.2070   27.2330 C   0  0  0  0  0  0  0  0  0  0  0  0
    6.6280  -66.3540   28.3340 C   0  0  0  0  0  0  0  0  0  0  0  0
    6.1190  -66.8790   29.5030 N   0  0  0  0  0  0  0  0  0  0  0  0
    6.5160  -65.0090   28.4450 C   0  0  0  0  0  0  0  0  0  0  0  0
    5.7150  -65.8950   30.2850 C   0  0  0  0  0  0  0  0  0  0  0  0
    5.9440  -64.7500   29.6670 N   0  0  0  0  0  0  0  0  0  0  0  0
    7.2420  -71.9270   24.3420 N   0  0  0  0  0  0  0  0  0  0  0  0
    6.5100  -73.1290   23.9640 C   0  0  2  0  0  0  0  0  0  0  0  0
    4.9990  -72.9340   23.9600 C   0  0  0  0  0  0  0  0  0  0  0  0
    4.2660  -73.9100   23.7660 O   0  0  0  0  0  0  0  0  0  0  0  0
    6.8810  -74.2880   24.8930 C   0  0  0  0  0  0  0  0  0  0  0  0
    8.2750  -74.8860   24.6960 C   0  0  0  0  0  0  0  0  0  0  0  0
    8.5130  -76.0280   25.6710 C   0  0  0  0  0  0  0  0  0  0  0  0
    8.4560  -75.3570   23.2600 C   0  0  0  0  0  0  0  0  0  0  0  0
    4.5150  -71.7100   24.1630 N   0  0  0  0  0  0  0  0  0  0  0  0
    3.0860  -71.4280   24.1100 C   0  0  2  0  0  0  0  0  0  0  0  0
    2.5710  -71.2480   22.6880 C   0  0  0  0  0  0  0  0  0  0  0  0
    1.4340  -70.7970   22.5110 O   0  0  0  0  0  0  0  0  0  0  0  0
    2.7630  -70.1830   24.9400 C   0  0  0  0  0  0  0  0  0  0  0  0
    3.4660  -69.0520   24.4580 O   0  0  0  0  0  0  0  0  0  0  0  0
    3.3830  -71.5830   21.6820 N   0  0  0  0  0  0  0  0  0  0  0  0
    2.9920  -71.5100   20.2720 C   0  0  2  0  0  0  0  0  0  0  0  0
    2.5840  -70.0980   19.8630 C   0  0  0  0  0  0  0  0  0  0  0  0
    1.7100  -69.9150   19.0130 O   0  0  0  0  0  0  0  0  0  0  0  0
    1.8710  -72.5040   19.9550 C   0  0  0  0  0  0  0  0  0  0  0  0
    2.2510  -73.9360   20.2800 C   0  0  0  0  0  0  0  0  0  0  0  0
   -5.4100  -86.3350   24.6100 N   0  0  0  0  0  0  0  0  0  0  0  0
   -5.0610  -84.9900   25.0420 C   0  0  2  0  0  0  0  0  0  0  0  0
   -4.1910  -85.0560   26.2900 C   0  0  0  0  0  0  0  0  0  0  0  0
   -4.4450  -85.8560   27.1950 O   0  0  0  0  0  0  0  0  0  0  0  0
   -6.3160  -84.1580   25.3200 C   0  0  0  0  0  0  0  0  0  0  0  0
   -3.1690  -84.2040   26.3330 N   0  0  0  0  0  0  0  0  0  0  0  0
   -2.1990  -84.1550   27.4190 C   0  0  2  0  0  0  0  0  0  0  0  0
   -2.8610  -83.7160   28.7230 C   0  0  0  0  0  0  0  0  0  0  0  0
   -4.0360  -83.3240   28.7130 O   0  0  0  0  0  0  0  0  0  0  0  0
   -1.0550  -83.2090   27.0430 C   0  0  0  0  0  0  0  0  0  0  0  0
   -2.1590  -83.7940   29.8730 N   0  0  0  0  0  0  0  0  0  0  0  0
   -2.6910  -83.1870   31.1030 C   0  0  2  0  0  0  0  0  0  0  0  0
   -3.0880  -81.7300   30.9070 C   0  0  0  0  0  0  0  0  0  0  0  0
   -4.2660  -81.3850   31.0550 O   0  0  0  0  0  0  0  0  0  0  0  0
   -1.5300  -83.3390   32.0910 C   0  0  0  0  0  0  0  0  0  0  0  0
   -0.8490  -84.5780   31.6530 C   0  0  0  0  0  0  0  0  0  0  0  0
   -0.9790  -84.6360   30.1500 C   0  0  0  0  0  0  0  0  0  0  0  0
   -2.1280  -80.8670   30.5750 N   0  0  0  0  0  0  0  0  0  0  0  0
   -2.4890  -79.5640   30.0450 C   0  0  2  0  0  0  0  0  0  0  0  0
   -3.1090  -79.7540   28.6640 C   0  0  0  0  0  0  0  0  0  0  0  0
   -3.0550  -80.8400   28.0790 O   0  0  0  0  0  0  0  0  0  0  0  0
   -1.2750  -78.6350   29.9910 C   0  0  0  0  0  0  0  0  0  0  0  0
   -0.3530  -79.0390   28.9970 O   0  0  0  0  0  0  0  0  0  0  0  0
   -3.6970  -78.6810   28.1370 N   0  0  0  0  0  0  0  0  0  0  0  0
   -4.7020  -78.7920   27.0800 C   0  0  2  0  0  0  0  0  0  0  0  0
   -5.8890  -79.6040   27.5780 C   0  0  0  0  0  0  0  0  0  0  0  0
   -6.5390  -80.3150   26.8110 O   0  0  0  0  0  0  0  0  0  0  0  0
   -4.1310  -79.4000   25.7900 C   0  0  0  0  0  0  0  0  0  0  0  0
   -3.0630  -78.5590   25.1060 C   0  0  0  0  0  0  0  0  0  0  0  0
   -1.8090  -79.3650   24.8050 C   0  0  0  0  0  0  0  0  0  0  0  0
   -2.0860  -80.5000   23.8350 C   0  0  0  0  0  0  0  0  0  0  0  0
   -0.8700  -81.3290   23.6020 N   0  0  0  0  0  0  0  0  0  0  0  0
   -9.4020  -89.9020   32.8320 N   0  0  0  0  0  0  0  0  0  0  0  0
   -8.0110  -90.3010   32.6740 C   0  0  2  0  0  0  0  0  0  0  0  0
   -7.9370  -91.7330   32.1650 C   0  0  0  0  0  0  0  0  0  0  0  0
   -8.5700  -92.6330   32.7240 O   0  0  0  0  0  0  0  0  0  0  0  0
   -7.2640  -90.1740   34.0010 C   0  0  0  0  0  0  0  0  0  0  0  0
   -5.8250  -90.6480   33.9510 C   0  0  0  0  0  0  0  0  0  0  0  0
   -5.1060  -90.4040   35.2700 C   0  0  0  0  0  0  0  0  0  0  0  0
   -1.9050  -92.8490   29.8890 N   0  0  0  0  0  0  0  0  0  0  0  0
   -1.4710  -91.5150   30.2560 C   0  0  0  0  0  0  0  0  0  0  0  0
   -2.0290  -90.4150   29.3820 C   0  0  0  0  0  0  0  0  0  0  0  0
   -1.3610  -89.3970   29.1750 O   0  0  0  0  0  0  0  0  0  0  0  0
   -3.2350  -90.5950   28.8560 N   0  0  0  0  0  0  0  0  0  0  0  0
   -3.9110  -89.5960   28.0440 C   0  0  2  0  0  0  0  0  0  0  0  0
   -5.1610  -89.1080   28.7690 C   0  0  0  0  0  0  0  0  0  0  0  0
   -5.4850  -89.5510   29.8740 O   0  0  0  0  0  0  0  0  0  0  0  0
   -4.2590  -90.1640   26.6650 C   0  0  2  0  0  0  0  0  0  0  0  0
   -4.9880  -91.3880   26.8180 O   0  0  0  0  0  0  0  0  0  0  0  0
   -2.9950  -90.4260   25.8580 C   0  0  0  0  0  0  0  0  0  0  0  0
   -5.8660  -88.1780   28.1320 N   0  0  0  0  0  0  0  0  0  0  0  0
   -7.0930  -87.6230   28.6830 C   0  0  2  0  0  0  0  0  0  0  0  0
   -8.1230  -87.5140   27.5700 C   0  0  0  0  0  0  0  0  0  0  0  0
   -7.7820  -87.1940   26.4280 O   0  0  0  0  0  0  0  0  0  0  0  0
   -6.8420  -86.2520   29.3310 C   0  0  0  0  0  0  0  0  0  0  0  0
   -7.9630  -85.6190   30.1590 C   0  0  0  0  0  0  0  0  0  0  0  0
   -7.3810  -84.8010   31.2980 C   0  0  0  0  0  0  0  0  0  0  0  0
   -8.8520  -84.7450   29.2930 C   0  0  0  0  0  0  0  0  0  0  0  0
   -3.0560  -73.6430   23.5250 N   0  0  0  0  0  0  0  0  0  0  0  0
   -1.9580  -74.3780   22.9030 C   0  0  2  0  0  0  0  0  0  0  0  0
   -2.3310  -74.8310   21.4980 C   0  0  0  0  0  0  0  0  0  0  0  0
   -1.4980  -74.7950   20.5840 O   0  0  0  0  0  0  0  0  0  0  0  0
   -1.5680  -75.5830   23.7590 C   0  0  0  0  0  0  0  0  0  0  0  0
   -0.9450  -75.2240   25.0710 C   0  0  0  0  0  0  0  0  0  0  0  0
   -0.5500  -73.9410   25.3840 N   0  0  0  0  0  0  0  0  0  0  0  0
   -0.6430  -75.9840   26.1500 C   0  0  0  0  0  0  0  0  0  0  0  0
   -0.0340  -73.9270   26.6000 C   0  0  0  0  0  0  0  0  0  0  0  0
   -0.0790  -75.1540   27.0870 N   0  0  0  0  0  0  0  0  0  0  0  0
  2  1  1  1
  3  2  1  0
  4  3  2  0
  5  2  1  0
  6  5  1  0
  7  6  1  0
  8  7  2  0
  9  7  1  0
 10  3  1  0
 11 10  1  0
 12 11  1  0
 13 12  2  0
 11 14  1  1
 15 12  1  0
 16 15  1  0
 17 16  1  0
 18 17  2  0
 16 19  1  1
 20 19  1  0
 21 20  1  0
 22 20  2  0
 23 21  2  0
 24 23  1  0
 24 22  1  0
 26 25  1  1
 27 26  1  0
 28 27  2  0
 29 26  1  0
 30 29  1  0
 31 30  1  0
 32 30  1  0
 33 27  1  0
 34 33  1  0
 35 34  1  0
 36 35  2  0
 34 37  1  1
 38 37  1  0
 39 35  1  0
 40 39  1  0
 41 40  1  0
 42 41  2  0
 40 43  1  1
 44 43  1  0
 46 45  1  0
 47 46  1  0
 48 47  2  0
 46 49  1  1
 50 47  1  0
 51 50  1  0
 52 51  1  0
 53 52  2  0
 51 54  1  6
 55 52  1  0
 56 55  1  0
 56 57  1  6
 58 57  2  0
 59 56  1  0
 60 59  1  0
 61 60  1  0
 61 55  1  0
 62 57  1  0
 63 62  1  0
 64 63  1  0
 65 64  2  0
 63 66  1  6
 67 66  1  0
 68 64  1  0
 69 68  1  0
 70 69  1  0
 71 70  2  0
 69 72  1  6
 73 72  1  0
 74 73  1  0
 75 74  1  0
 76 75  1  0
 78 77  1  1
 79 78  1  0
 80 79  2  0
 81 78  1  0
 82 81  1  0
 83 82  1  0
 85 84  1  0
 86 85  1  0
 87 86  2  0
 88 86  1  0
 89 88  1  1
 90 89  1  0
 91 90  2  0
 92 89  1  0
 93 92  1  0
 92 94  1  6
 95 90  1  0
 96 95  1  0
 97 96  1  0
 98 97  2  0
 96 99  1  6
100 99  1  0
101100  1  0
102100  1  0
104103  1  1
105104  1  0
106105  2  0
107104  1  0
108107  1  0
109108  1  0
110108  2  0
111109  2  0
112111  1  0
112110  1  0
M  END
$$$$
