
     RDKit          3D

147143  0  0  0  0  0  0  0  0999 V2000
  116.1950  128.5370  158.7560 N   0  0  0  0  0  0  0  0  0  0  0  0
  117.1350  129.6440  158.7190 C   0  0  2  0  0  0  0  0  0  0  0  0
  116.4730  130.9850  158.4470 C   0  0  0  0  0  0  0  0  0  0  0  0
  117.1350  132.0220  158.5780 O   0  0  0  0  0  0  0  0  0  0  0  0
  118.2130  129.3990  157.6670 C   0  0  0  0  0  0  0  0  0  0  0  0
  115.1880  131.0010  158.0970 N   0  0  0  0  0  0  0  0  0  0  0  0
  114.5380  132.2080  157.6060 C   0  0  2  0  0  0  0  0  0  0  0  0
  114.2030  133.2060  158.7040 C   0  0  0  0  0  0  0  0  0  0  0  0
  113.8300  134.3400  158.3910 O   0  0  0  0  0  0  0  0  0  0  0  0
  113.2600  131.8550  156.8370 C   0  0  2  0  0  0  0  0  0  0  0  0
  112.7930  133.0120  156.1380 O   0  0  0  0  0  0  0  0  0  0  0  0
  112.1700  131.4000  157.7820 C   0  0  0  0  0  0  0  0  0  0  0  0
  114.3170  132.8240  159.9700 N   0  0  0  0  0  0  0  0  0  0  0  0
  114.1890  133.7930  161.0370 C   0  0  0  0  0  0  0  0  0  0  0  0
  115.5510  134.2670  161.4960 C   0  0  0  0  0  0  0  0  0  0  0  0
  115.8180  135.4690  161.5780 O   0  0  0  0  0  0  0  0  0  0  0  0
  116.4250  133.3120  161.7880 N   0  0  0  0  0  0  0  0  0  0  0  0
  117.8110  133.5940  162.1060 C   0  0  2  0  0  0  0  0  0  0  0  0
  118.6550  132.5910  161.3510 C   0  0  0  0  0  0  0  0  0  0  0  0
  118.2740  131.4290  161.2190 O   0  0  0  0  0  0  0  0  0  0  0  0
  118.0950  133.4870  163.6080 C   0  0  0  0  0  0  0  0  0  0  0  0
  119.5020  133.9470  163.9830 C   0  0  0  0  0  0  0  0  0  0  0  0
  120.2740  134.4120  163.1450 O   0  0  0  0  0  0  0  0  0  0  0  0
  119.8440  133.7960  165.2530 N   0  0  0  0  0  0  0  0  0  0  0  0
  119.8020  133.0400  160.8770 N   0  0  0  0  0  0  0  0  0  0  0  0
  120.7390  132.1270  160.2610 C   0  0  2  0  0  0  0  0  0  0  0  0
  121.9990  132.0830  161.1050 C   0  0  0  0  0  0  0  0  0  0  0  0
  122.9040  132.9000  160.8880 O   0  0  0  0  0  0  0  0  0  0  0  0
  121.0650  132.5660  158.8400 C   0  0  0  0  0  0  0  0  0  0  0  0
  121.7530  131.4840  158.0510 C   0  0  0  0  0  0  0  0  0  0  0  0
  121.9580  130.3760  158.5410 O   0  0  0  0  0  0  0  0  0  0  0  0
  122.1240  131.8010  156.8190 N   0  0  0  0  0  0  0  0  0  0  0  0
  126.8190  130.9000  159.3920 N   0  0  0  0  0  0  0  0  0  0  0  0
  126.7250  131.3950  158.0260 C   0  0  2  0  0  0  0  0  0  0  0  0
  127.8050  130.8040  157.1340 C   0  0  0  0  0  0  0  0  0  0  0  0
  128.4150  129.7920  157.4880 O   0  0  0  0  0  0  0  0  0  0  0  0
  126.7790  132.9230  157.9750 C   0  0  0  0  0  0  0  0  0  0  0  0
  128.0160  133.5010  158.6180 C   0  0  0  0  0  0  0  0  0  0  0  0
  128.8480  132.7930  159.1700 O   0  0  0  0  0  0  0  0  0  0  0  0
  128.1560  134.8120  158.5190 N   0  0  0  0  0  0  0  0  0  0  0  0
  128.0190  131.4330  155.9730 N   0  0  0  0  0  0  0  0  0  0  0  0
  128.6300  130.8120  154.7940 C   0  0  2  0  0  0  0  0  0  0  0  0
  127.8420  129.5750  154.4130 C   0  0  0  0  0  0  0  0  0  0  0  0
  128.4030  128.5240  154.1200 O   0  0  0  0  0  0  0  0  0  0  0  0
  130.1110  130.4770  154.9950 C   0  0  0  0  0  0  0  0  0  0  0  0
  130.9600  131.6810  155.2330 C   0  0  0  0  0  0  0  0  0  0  0  0
  130.6150  132.9030  154.6980 C   0  0  0  0  0  0  0  0  0  0  0  0
  132.0580  131.6160  156.0640 C   0  0  0  0  0  0  0  0  0  0  0  0
  131.3720  134.0140  154.9310 C   0  0  0  0  0  0  0  0  0  0  0  0
  132.8230  132.7230  156.3110 C   0  0  0  0  0  0  0  0  0  0  0  0
  132.4770  133.9200  155.7370 C   0  0  0  0  0  0  0  0  0  0  0  0
  133.2280  135.0420  155.9800 O   0  0  0  0  0  0  0  0  0  0  0  0
  126.5250  129.7060  154.4270 N   0  0  0  0  0  0  0  0  0  0  0  0
  125.6370  128.5670  154.5080 C   0  0  2  0  0  0  0  0  0  0  0  0
  124.7780  128.3670  153.2800 C   0  0  0  0  0  0  0  0  0  0  0  0
  124.6320  127.2280  152.8390 O   0  0  0  0  0  0  0  0  0  0  0  0
  124.7340  128.7140  155.7280 C   0  0  0  0  0  0  0  0  0  0  0  0
  124.2040  129.4450  152.7430 N   0  0  0  0  0  0  0  0  0  0  0  0
  123.2430  129.4280  151.6370 C   0  0  2  0  0  0  0  0  0  0  0  0
  122.0740  128.4970  151.9770 C   0  0  0  0  0  0  0  0  0  0  0  0
  121.7520  127.5500  151.2690 O   0  0  0  0  0  0  0  0  0  0  0  0
  123.9270  129.0370  150.3210 C   0  0  2  0  0  0  0  0  0  0  0  0
  125.1840  129.7030  150.2480 O   0  0  0  0  0  0  0  0  0  0  0  0
  123.1200  129.5030  149.1330 C   0  0  0  0  0  0  0  0  0  0  0  0
  118.9100  129.4400  152.4700 N   0  0  0  0  0  0  0  0  0  0  0  0
  117.5850  129.7880  151.9930 C   0  0  2  0  0  0  0  0  0  0  0  0
  117.6770  130.3350  150.5890 C   0  0  0  0  0  0  0  0  0  0  0  0
  118.7600  130.6070  150.0740 O   0  0  0  0  0  0  0  0  0  0  0  0
  116.8850  130.8040  152.8840 C   0  0  2  0  0  0  0  0  0  0  0  0
  115.5590  131.0120  152.3890 O   0  0  0  0  0  0  0  0  0  0  0  0
  117.6120  132.0960  152.8480 C   0  0  0  0  0  0  0  0  0  0  0  0
  116.5430  133.2250  149.3660 N   0  0  0  0  0  0  0  0  0  0  0  0
  116.9750  134.6090  149.2690 C   0  0  2  0  0  0  0  0  0  0  0  0
  118.4850  134.7260  149.3200 C   0  0  0  0  0  0  0  0  0  0  0  0
  119.0610  135.4780  148.5310 O   0  0  0  0  0  0  0  0  0  0  0  0
  116.3660  135.4470  150.3850 C   0  0  0  0  0  0  0  0  0  0  0  0
  114.8940  135.6970  150.2450 C   0  0  0  0  0  0  0  0  0  0  0  0
  114.0660  134.6020  150.8490 C   0  0  0  0  0  0  0  0  0  0  0  0
  114.6520  133.6740  151.4410 O   0  0  0  0  0  0  0  0  0  0  0  0
  112.8270  134.6700  150.7360 O   0  0  0  0  0  0  0  0  0  0  0  0
  119.1360  133.9800  150.2170 N   0  0  0  0  0  0  0  0  0  0  0  0
  120.5780  134.1110  150.3760 C   0  0  2  0  0  0  0  0  0  0  0  0
  121.3210  133.6280  149.1500 C   0  0  0  0  0  0  0  0  0  0  0  0
  122.4190  134.1060  148.8590 O   0  0  0  0  0  0  0  0  0  0  0  0
  121.0600  133.3570  151.6020 C   0  0  0  0  0  0  0  0  0  0  0  0
  120.7040  134.0070  152.8980 C   0  0  0  0  0  0  0  0  0  0  0  0
  121.2230  133.2270  154.0770 C   0  0  0  0  0  0  0  0  0  0  0  0
  121.7800  132.1320  153.8670 O   0  0  0  0  0  0  0  0  0  0  0  0
  121.0800  133.7010  155.2220 O   0  0  0  0  0  0  0  0  0  0  0  0
  120.7450  132.6930  148.4100 N   0  0  0  0  0  0  0  0  0  0  0  0
  121.3180  132.4220  147.1070 C   0  0  2  0  0  0  0  0  0  0  0  0
  121.0100  133.5530  146.1530 C   0  0  0  0  0  0  0  0  0  0  0  0
  121.8310  133.8910  145.2970 O   0  0  0  0  0  0  0  0  0  0  0  0
  120.8110  131.1050  146.5430 C   0  0  0  0  0  0  0  0  0  0  0  0
  121.3980  130.8670  145.1950 C   0  0  0  0  0  0  0  0  0  0  0  0
  122.7490  130.6320  145.0580 C   0  0  0  0  0  0  0  0  0  0  0  0
  120.6180  130.9020  144.0600 C   0  0  0  0  0  0  0  0  0  0  0  0
  123.3100  130.4300  143.8330 C   0  0  0  0  0  0  0  0  0  0  0  0
  121.1690  130.7030  142.8250 C   0  0  0  0  0  0  0  0  0  0  0  0
  122.5190  130.4670  142.7190 C   0  0  0  0  0  0  0  0  0  0  0  0
  123.0880  130.2570  141.4880 O   0  0  0  0  0  0  0  0  0  0  0  0
  120.3440  136.8940  146.6590 N   0  0  0  0  0  0  0  0  0  0  0  0
  121.0140  138.1700  146.8540 C   0  0  2  0  0  0  0  0  0  0  0  0
  122.4750  138.0640  146.4850 C   0  0  0  0  0  0  0  0  0  0  0  0
  123.0330  138.9730  145.8630 O   0  0  0  0  0  0  0  0  0  0  0  0
  120.8220  138.6300  148.3030 C   0  0  0  0  0  0  0  0  0  0  0  0
  121.6550  139.8420  148.6040 C   0  0  0  0  0  0  0  0  0  0  0  0
  119.3870  138.9510  148.5050 C   0  0  0  0  0  0  0  0  0  0  0  0
  123.0990  136.9260  146.7930 N   0  0  0  0  0  0  0  0  0  0  0  0
  124.5240  136.7430  146.5490 C   0  0  2  0  0  0  0  0  0  0  0  0
  124.8380  136.7130  145.0600 C   0  0  0  0  0  0  0  0  0  0  0  0
  125.9730  136.9720  144.6570 O   0  0  0  0  0  0  0  0  0  0  0  0
  124.9770  135.4620  147.2410 C   0  0  0  0  0  0  0  0  0  0  0  0
  126.4630  135.2330  147.3190 C   0  0  0  0  0  0  0  0  0  0  0  0
  126.7680  133.8940  147.9680 C   0  0  0  0  0  0  0  0  0  0  0  0
  127.1200  134.0430  149.4370 C   0  0  0  0  0  0  0  0  0  0  0  0
  125.9360  134.2770  150.2940 N   0  0  0  0  0  0  0  0  0  0  0  0
  120.7010  140.0950  142.8300 N   0  0  0  0  0  0  0  0  0  0  0  0
  119.3900  140.1590  142.2030 C   0  0  2  0  0  0  0  0  0  0  0  0
  118.3930  140.6680  143.2310 C   0  0  0  0  0  0  0  0  0  0  0  0
  118.3710  140.1880  144.3670 O   0  0  0  0  0  0  0  0  0  0  0  0
  118.9850  138.7820  141.6590 C   0  0  2  0  0  0  0  0  0  0  0  0
  119.9220  138.3780  140.5260 C   0  0  0  0  0  0  0  0  0  0  0  0
  117.5720  138.7870  141.1760 C   0  0  0  0  0  0  0  0  0  0  0  0
  119.8350  136.9380  140.1430 C   0  0  0  0  0  0  0  0  0  0  0  0
  117.5790  141.6410  142.8320 N   0  0  0  0  0  0  0  0  0  0  0  0
  116.6410  142.2960  143.7320 C   0  0  2  0  0  0  0  0  0  0  0  0
  115.5460  141.3370  144.1940 C   0  0  0  0  0  0  0  0  0  0  0  0
  115.1930  140.3860  143.4970 O   0  0  0  0  0  0  0  0  0  0  0  0
  116.0360  143.5020  143.0160 C   0  0  0  0  0  0  0  0  0  0  0  0
  115.3310  144.4660  143.9500 C   0  0  0  0  0  0  0  0  0  0  0  0
  115.2080  144.1890  145.1580 O   0  0  0  0  0  0  0  0  0  0  0  0
  114.9130  145.5390  143.4690 O   0  0  0  0  0  0  0  0  0  0  0  0
  115.0100  141.5990  145.3840 N   0  0  0  0  0  0  0  0  0  0  0  0
  113.9480  140.7990  145.9790 C   0  0  2  0  0  0  0  0  0  0  0  0
  112.5780  141.4440  145.8700 C   0  0  0  0  0  0  0  0  0  0  0  0
  111.5730  140.7720  146.1080 O   0  0  0  0  0  0  0  0  0  0  0  0
  114.2440  140.5500  147.4490 C   0  0  0  0  0  0  0  0  0  0  0  0
  115.5320  139.8010  147.7010 C   0  0  0  0  0  0  0  0  0  0  0  0
  115.7420  139.6760  149.1810 C   0  0  0  0  0  0  0  0  0  0  0  0
  115.4410  138.4600  147.0640 C   0  0  0  0  0  0  0  0  0  0  0  0
  112.5180  142.7260  145.5630 N   0  0  0  0  0  0  0  0  0  0  0  0
  111.2600  143.4070  145.3520 C   0  0  2  0  0  0  0  0  0  0  0  0
  110.6110  142.8970  144.0780 C   0  0  0  0  0  0  0  0  0  0  0  0
  111.3070  142.5040  143.1410 O   0  0  0  0  0  0  0  0  0  0  0  0
  111.5020  144.9030  145.2390 C   0  0  0  0  0  0  0  0  0  0  0  0
  112.2150  145.1800  144.0500 O   0  0  0  0  0  0  0  0  0  0  0  0
  2  1  1  0
  3  2  1  0
  4  3  2  0
  2  5  1  6
  6  3  1  0
  7  6  1  1
  8  7  1  0
  9  8  2  0
 10  7  1  0
 11 10  1  0
 10 12  1  1
 13  8  1  0
 14 13  1  0
 15 14  1  0
 16 15  2  0
 17 15  1  0
 18 17  1  0
 19 18  1  0
 20 19  2  0
 18 21  1  1
 22 21  1  0
 23 22  2  0
 24 22  1  0
 25 19  1  0
 26 25  1  0
 27 26  1  0
 28 27  2  0
 26 29  1  6
 30 29  1  0
 31 30  2  0
 32 30  1  0
 34 33  1  1
 35 34  1  0
 36 35  2  0
 37 34  1  0
 38 37  1  0
 39 38  2  0
 40 38  1  0
 41 35  1  0
 42 41  1  0
 43 42  1  0
 44 43  2  0
 42 45  1  1
 46 45  1  0
 47 46  2  0
 48 46  1  0
 49 47  1  0
 50 48  2  0
 51 50  1  0
 51 49  2  0
 52 51  1  0
 53 43  1  0
 54 53  1  0
 55 54  1  0
 56 55  2  0
 54 57  1  1
 58 55  1  0
 59 58  1  1
 60 59  1  0
 61 60  2  0
 62 59  1  0
 63 62  1  0
 62 64  1  6
 66 65  1  1
 67 66  1  0
 68 67  2  0
 69 66  1  0
 70 69  1  0
 69 71  1  6
 73 72  1  1
 74 73  1  0
 75 74  2  0
 76 73  1  0
 77 76  1  0
 78 77  1  0
 79 78  2  0
 80 78  1  0
 81 74  1  0
 82 81  1  0
 83 82  1  0
 84 83  2  0
 82 85  1  1
 86 85  1  0
 87 86  1  0
 88 87  2  0
 89 87  1  0
 90 83  1  0
 91 90  1  0
 92 91  1  0
 93 92  2  0
 91 94  1  6
 95 94  1  0
 96 95  2  0
 97 95  1  0
 98 96  1  0
 99 97  2  0
100 99  1  0
100 98  2  0
101100  1  0
103102  1  1
104103  1  0
105104  2  0
106103  1  0
107106  1  0
108106  1  0
109104  1  0
110109  1  0
111110  1  0
112111  2  0
110113  1  6
114113  1  0
115114  1  0
116115  1  0
117116  1  0
119118  1  1
120119  1  0
121120  2  0
122119  1  0
123122  1  0
122124  1  6
125123  1  0
126120  1  0
127126  1  0
128127  1  0
129128  2  0
127130  1  6
131130  1  0
132131  2  0
133131  1  0
134128  1  0
135134  1  0
136135  1  0
137136  2  0
135138  1  1
139138  1  0
140139  1  0
141139  1  0
142136  1  0
143142  1  0
144143  1  0
145144  2  0
143146  1  6
147146  1  0
M  END
$$$$
