
     RDKit          3D

 95 92  0  0  0  0  0  0  0  0999 V2000
   34.9020   68.2070  -66.1860 N   0  0  0  0  0  0  0  0  0  0  0  0
   34.9410   69.5030  -65.4840 C   0  0  2  0  0  0  0  0  0  0  0  0
   33.9740   70.5510  -66.0120 C   0  0  0  0  0  0  0  0  0  0  0  0
   33.4820   71.3670  -65.2220 O   0  0  0  0  0  0  0  0  0  0  0  0
   36.3980   69.9460  -65.6680 C   0  0  0  0  0  0  0  0  0  0  0  0
   37.1530   68.6660  -65.7630 C   0  0  0  0  0  0  0  0  0  0  0  0
   36.2550   67.7170  -66.5090 C   0  0  0  0  0  0  0  0  0  0  0  0
   38.9440   63.5650  -61.8150 N   0  0  0  0  0  0  0  0  0  0  0  0
   38.9690   64.8390  -62.5190 C   0  0  2  0  0  0  0  0  0  0  0  0
   39.2020   65.9700  -61.5290 C   0  0  0  0  0  0  0  0  0  0  0  0
   38.6640   65.9550  -60.4180 O   0  0  0  0  0  0  0  0  0  0  0  0
   37.6630   65.0770  -63.2890 C   0  0  0  0  0  0  0  0  0  0  0  0
   36.5350   64.7960  -62.4790 O   0  0  0  0  0  0  0  0  0  0  0  0
   40.0080   66.9440  -61.9400 N   0  0  0  0  0  0  0  0  0  0  0  0
   40.3830   68.0590  -61.0840 C   0  0  2  0  0  0  0  0  0  0  0  0
   39.3660   69.1910  -61.1900 C   0  0  0  0  0  0  0  0  0  0  0  0
   38.6500   69.3300  -62.1840 O   0  0  0  0  0  0  0  0  0  0  0  0
   41.7780   68.5700  -61.4480 C   0  0  0  0  0  0  0  0  0  0  0  0
   39.3120   70.0050  -60.1370 N   0  0  0  0  0  0  0  0  0  0  0  0
   38.3900   71.1120  -60.0530 C   0  0  0  0  0  0  0  0  0  0  0  0
   37.0760   70.8010  -59.3690 C   0  0  0  0  0  0  0  0  0  0  0  0
   36.4140   71.7260  -58.8840 O   0  0  0  0  0  0  0  0  0  0  0  0
   36.6840   69.5290  -59.3060 N   0  0  0  0  0  0  0  0  0  0  0  0
   35.4220   69.1670  -58.7000 C   0  0  0  0  0  0  0  0  0  0  0  0
   34.2570   69.7500  -59.4860 C   0  0  0  0  0  0  0  0  0  0  0  0
   34.3490   70.0360  -60.6820 O   0  0  0  0  0  0  0  0  0  0  0  0
   33.1370   69.9120  -58.7880 N   0  0  0  0  0  0  0  0  0  0  0  0
   32.0020   70.6100  -59.3720 C   0  0  2  0  0  0  0  0  0  0  0  0
   32.3640   72.0680  -59.6170 C   0  0  0  0  0  0  0  0  0  0  0  0
   33.0400   72.7030  -58.8020 O   0  0  0  0  0  0  0  0  0  0  0  0
   30.7790   70.5200  -58.4600 C   0  0  0  0  0  0  0  0  0  0  0  0
   29.8330   69.3360  -58.6560 C   0  0  0  0  0  0  0  0  0  0  0  0
   28.7820   69.3060  -57.5570 C   0  0  0  0  0  0  0  0  0  0  0  0
   29.1770   69.4100  -60.0250 C   0  0  0  0  0  0  0  0  0  0  0  0
   36.8500   66.5110  -46.5630 N   0  0  0  0  0  0  0  0  0  0  0  0
   37.9620   66.8140  -47.4360 C   0  0  0  0  0  0  0  0  0  0  0  0
   37.5690   66.5880  -48.8770 C   0  0  0  0  0  0  0  0  0  0  0  0
   37.7590   67.4610  -49.7300 O   0  0  0  0  0  0  0  0  0  0  0  0
   37.0260   65.4050  -49.1620 N   0  0  0  0  0  0  0  0  0  0  0  0
   36.4890   65.1460  -50.4900 C   0  0  2  0  0  0  0  0  0  0  0  0
   35.2570   66.0050  -50.7420 C   0  0  0  0  0  0  0  0  0  0  0  0
   35.0230   66.4500  -51.8680 O   0  0  0  0  0  0  0  0  0  0  0  0
   36.1680   63.6610  -50.6460 C   0  0  0  0  0  0  0  0  0  0  0  0
   37.3970   62.7590  -50.5400 C   0  0  0  0  0  0  0  0  0  0  0  0
   37.0720   61.3240  -50.9200 C   0  0  0  0  0  0  0  0  0  0  0  0
   38.5420   63.2980  -51.3790 C   0  0  0  0  0  0  0  0  0  0  0  0
   34.7880   69.0440  -49.4680 N   0  0  0  0  0  0  0  0  0  0  0  0
   35.2960   70.3860  -49.7310 C   0  0  2  0  0  0  0  0  0  0  0  0
   35.9230   70.4920  -51.1150 C   0  0  0  0  0  0  0  0  0  0  0  0
   35.8700   71.5600  -51.7350 O   0  0  0  0  0  0  0  0  0  0  0  0
   36.3050   70.7860  -48.6510 C   0  0  0  0  0  0  0  0  0  0  0  0
   35.6860   71.2500  -47.3310 C   0  0  0  0  0  0  0  0  0  0  0  0
   35.1460   70.1120  -46.4730 C   0  0  0  0  0  0  0  0  0  0  0  0
   34.4470   69.2250  -47.0040 O   0  0  0  0  0  0  0  0  0  0  0  0
   35.4160   70.1100  -45.2530 O   0  0  0  0  0  0  0  0  0  0  0  0
   36.5180   69.4060  -51.6150 N   0  0  0  0  0  0  0  0  0  0  0  0
   37.0410   69.4130  -52.9790 C   0  0  2  0  0  0  0  0  0  0  0  0
   35.9140   69.4670  -54.0000 C   0  0  0  0  0  0  0  0  0  0  0  0
   36.0070   70.1860  -55.0010 O   0  0  0  0  0  0  0  0  0  0  0  0
   37.9040   68.1750  -53.2240 C   0  0  0  0  0  0  0  0  0  0  0  0
   39.2540   68.2050  -52.5470 C   0  0  0  0  0  0  0  0  0  0  0  0
   40.0180   66.9130  -52.7550 C   0  0  0  0  0  0  0  0  0  0  0  0
   41.3530   66.9900  -52.1720 N   0  0  0  0  0  0  0  0  0  0  0  0
   41.6190   66.7560  -50.8920 C   0  0  0  0  0  0  0  0  0  0  0  0
   40.6390   66.4370  -50.0570 N   0  0  0  0  0  0  0  0  0  0  0  0
   42.8640   66.8480  -50.4440 N   0  0  0  0  0  0  0  0  0  0  0  0
   34.8380   68.7160  -53.7610 N   0  0  0  0  0  0  0  0  0  0  0  0
   33.7800   68.5980  -54.7570 C   0  0  2  0  0  0  0  0  0  0  0  0
   32.9230   69.8560  -54.8190 C   0  0  0  0  0  0  0  0  0  0  0  0
   32.5770   70.3210  -55.9110 O   0  0  0  0  0  0  0  0  0  0  0  0
   32.9150   67.3740  -54.4630 C   0  0  0  0  0  0  0  0  0  0  0  0
   31.7770   67.1150  -55.4530 C   0  0  0  0  0  0  0  0  0  0  0  0
   32.3280   66.8370  -56.8420 C   0  0  0  0  0  0  0  0  0  0  0  0
   30.9080   65.9630  -54.9770 C   0  0  0  0  0  0  0  0  0  0  0  0
   32.5670   70.4160  -53.6650 N   0  0  0  0  0  0  0  0  0  0  0  0
   31.6560   71.5530  -53.6410 C   0  0  2  0  0  0  0  0  0  0  0  0
   32.2620   72.7550  -54.3530 C   0  0  0  0  0  0  0  0  0  0  0  0
   33.4470   73.0650  -54.1950 O   0  0  0  0  0  0  0  0  0  0  0  0
   31.3030   71.9260  -52.1990 C   0  0  0  0  0  0  0  0  0  0  0  0
   30.4050   70.9630  -51.4210 C   0  0  0  0  0  0  0  0  0  0  0  0
   30.3320   71.3740  -49.9580 C   0  0  0  0  0  0  0  0  0  0  0  0
   29.0150   70.9110  -52.0380 C   0  0  0  0  0  0  0  0  0  0  0  0
   31.4310   73.4320  -55.1460 N   0  0  0  0  0  0  0  0  0  0  0  0
   31.8140   74.6430  -55.8340 C   0  0  0  0  0  0  0  0  0  0  0  0
   30.9510   75.8200  -55.4120 C   0  0  0  0  0  0  0  0  0  0  0  0
   30.0120   75.6880  -54.6220 O   0  0  0  0  0  0  0  0  0  0  0  0
   31.2980   76.9830  -55.9540 N   0  0  0  0  0  0  0  0  0  0  0  0
   30.5750   78.2040  -55.6290 C   0  0  2  0  0  0  0  0  0  0  0  0
   29.1540   78.1520  -56.1760 C   0  0  0  0  0  0  0  0  0  0  0  0
   28.9200   77.7370  -57.3140 O   0  0  0  0  0  0  0  0  0  0  0  0
   31.3140   79.4210  -56.1830 C   0  0  0  0  0  0  0  0  0  0  0  0
   31.8680   79.2310  -57.5810 C   0  0  0  0  0  0  0  0  0  0  0  0
   32.9370   80.2480  -57.9280 C   0  0  0  0  0  0  0  0  0  0  0  0
   32.7080   81.4550  -57.7010 O   0  0  0  0  0  0  0  0  0  0  0  0
   34.0090   79.8410  -58.4250 O   0  0  0  0  0  0  0  0  0  0  0  0
  2  1  1  0
  2  3  1  6
  4  3  2  0
  5  2  1  0
  6  5  1  0
  7  6  1  0
  7  1  1  0
  9  8  1  1
 10  9  1  0
 11 10  2  0
 12  9  1  0
 13 12  1  0
 14 10  1  0
 15 14  1  0
 16 15  1  0
 17 16  2  0
 15 18  1  6
 19 16  1  0
 20 19  1  0
 21 20  1  0
 22 21  2  0
 23 21  1  0
 24 23  1  0
 25 24  1  0
 26 25  2  0
 27 25  1  0
 28 27  1  0
 29 28  1  0
 30 29  2  0
 28 31  1  1
 32 31  1  0
 33 32  1  0
 34 32  1  0
 36 35  1  0
 37 36  1  0
 38 37  2  0
 39 37  1  0
 40 39  1  0
 41 40  1  0
 42 41  2  0
 40 43  1  1
 44 43  1  0
 45 44  1  0
 46 44  1  0
 48 47  1  1
 49 48  1  0
 50 49  2  0
 51 48  1  0
 52 51  1  0
 53 52  1  0
 54 53  2  0
 55 53  1  0
 56 49  1  0
 57 56  1  0
 58 57  1  0
 59 58  2  0
 57 60  1  6
 61 60  1  0
 62 61  1  0
 63 62  1  0
 64 63  1  0
 65 64  1  0
 66 64  2  0
 67 58  1  0
 68 67  1  0
 69 68  1  0
 70 69  2  0
 68 71  1  1
 72 71  1  0
 73 72  1  0
 74 72  1  0
 75 69  1  0
 76 75  1  0
 77 76  1  0
 78 77  2  0
 76 79  1  1
 80 79  1  0
 81 80  1  0
 82 80  1  0
 83 77  1  0
 84 83  1  0
 85 84  1  0
 86 85  2  0
 87 85  1  0
 88 87  1  0
 89 88  1  0
 90 89  2  0
 88 91  1  6
 92 91  1  0
 93 92  1  0
 94 93  2  0
 95 93  1  0
M  END
$$$$
