
     RDKit          3D

124122  0  0  0  0  0  0  0  0999 V2000
  -33.7890  -29.0390   94.3280 N   0  0  0  0  0  0  0  0  0  0  0  0
  -33.6320  -30.4860   94.3590 C   0  0  2  0  0  0  0  0  0  0  0  0
  -32.2830  -30.9300   94.9040 C   0  0  0  0  0  0  0  0  0  0  0  0
  -32.1390  -32.0980   95.2800 O   0  0  0  0  0  0  0  0  0  0  0  0
  -33.8190  -31.0690   92.9550 C   0  0  2  0  0  0  0  0  0  0  0  0
  -32.8610  -30.4850   92.0630 O   0  0  0  0  0  0  0  0  0  0  0  0
  -35.2190  -30.7810   92.4440 C   0  0  0  0  0  0  0  0  0  0  0  0
  -29.3640  -26.2130   90.9470 N   0  0  0  0  0  0  0  0  0  0  0  0
  -30.2130  -27.3730   90.7380 C   0  0  2  0  0  0  0  0  0  0  0  0
  -31.6250  -26.9350   90.3530 C   0  0  0  0  0  0  0  0  0  0  0  0
  -31.9900  -25.7580   90.4370 O   0  0  0  0  0  0  0  0  0  0  0  0
  -30.2460  -28.2450   91.9930 C   0  0  0  0  0  0  0  0  0  0  0  0
  -30.8610  -27.5620   93.0710 O   0  0  0  0  0  0  0  0  0  0  0  0
  -32.4210  -27.9050   89.9180 N   0  0  0  0  0  0  0  0  0  0  0  0
  -33.7970  -27.6310   89.5390 C   0  0  2  0  0  0  0  0  0  0  0  0
  -34.5970  -27.1310   90.7390 C   0  0  0  0  0  0  0  0  0  0  0  0
  -34.2600  -27.3840   91.8980 O   0  0  0  0  0  0  0  0  0  0  0  0
  -34.4480  -28.8820   88.9610 C   0  0  0  0  0  0  0  0  0  0  0  0
  -33.8900  -29.2530   87.6070 C   0  0  0  0  0  0  0  0  0  0  0  0
  -33.1020  -28.4630   87.0430 O   0  0  0  0  0  0  0  0  0  0  0  0
  -34.2330  -30.3450   87.1110 O   0  0  0  0  0  0  0  0  0  0  0  0
  -35.6790  -26.4170   90.4420 N   0  0  0  0  0  0  0  0  0  0  0  0
  -36.5520  -25.8410   91.4560 C   0  0  2  0  0  0  0  0  0  0  0  0
  -37.9020  -26.5400   91.3750 C   0  0  0  0  0  0  0  0  0  0  0  0
  -38.5970  -26.4510   90.3550 O   0  0  0  0  0  0  0  0  0  0  0  0
  -36.7030  -24.3240   91.2740 C   0  0  2  0  0  0  0  0  0  0  0  0
  -35.3340  -23.6470   91.3470 C   0  0  0  0  0  0  0  0  0  0  0  0
  -37.6370  -23.7500   92.3260 C   0  0  0  0  0  0  0  0  0  0  0  0
  -35.3570  -22.1970   90.9400 C   0  0  0  0  0  0  0  0  0  0  0  0
  -38.2730  -27.2350   92.4530 N   0  0  0  0  0  0  0  0  0  0  0  0
  -39.5770  -27.8870   92.5040 C   0  0  2  0  0  0  0  0  0  0  0  0
  -40.6840  -26.8530   92.6630 C   0  0  0  0  0  0  0  0  0  0  0  0
  -41.7380  -26.9480   92.0220 O   0  0  0  0  0  0  0  0  0  0  0  0
  -39.6070  -28.9290   93.6380 C   0  0  0  0  0  0  0  0  0  0  0  0
  -41.0290  -29.4190   93.8800 C   0  0  0  0  0  0  0  0  0  0  0  0
  -38.6870  -30.0920   93.3150 C   0  0  0  0  0  0  0  0  0  0  0  0
  -38.8350  -24.9440   87.8540 N   0  0  0  0  0  0  0  0  0  0  0  0
  -37.7480  -25.1190   86.8950 C   0  0  2  0  0  0  0  0  0  0  0  0
  -37.3940  -26.5990   86.8550 C   0  0  0  0  0  0  0  0  0  0  0  0
  -36.9010  -27.1510   87.8440 O   0  0  0  0  0  0  0  0  0  0  0  0
  -36.5290  -24.2740   87.2640 C   0  0  0  0  0  0  0  0  0  0  0  0
  -35.4210  -24.3440   86.2270 C   0  0  0  0  0  0  0  0  0  0  0  0
  -34.3860  -23.2490   86.4150 C   0  0  0  0  0  0  0  0  0  0  0  0
  -33.6690  -23.3830   87.6800 N   0  0  0  0  0  0  0  0  0  0  0  0
  -32.9600  -22.4100   88.2420 C   0  0  0  0  0  0  0  0  0  0  0  0
  -32.8710  -21.2260   87.6510 N   0  0  0  0  0  0  0  0  0  0  0  0
  -32.3380  -22.6210   89.3940 N   0  0  0  0  0  0  0  0  0  0  0  0
  -37.6480  -27.2400   85.7160 N   0  0  0  0  0  0  0  0  0  0  0  0
  -37.4190  -28.6690   85.5400 C   0  0  2  0  0  0  0  0  0  0  0  0
  -36.3600  -28.8650   84.4650 C   0  0  0  0  0  0  0  0  0  0  0  0
  -36.5580  -28.4610   83.3140 O   0  0  0  0  0  0  0  0  0  0  0  0
  -38.7200  -29.3850   85.1710 C   0  0  0  0  0  0  0  0  0  0  0  0
  -39.8720  -29.0410   86.1020 C   0  0  0  0  0  0  0  0  0  0  0  0
  -41.2070  -29.5660   85.6180 C   0  0  0  0  0  0  0  0  0  0  0  0
  -41.2210  -30.5630   84.8670 O   0  0  0  0  0  0  0  0  0  0  0  0
  -42.2440  -28.9830   85.9970 O   0  0  0  0  0  0  0  0  0  0  0  0
  -35.2440  -29.4920   84.8450 N   0  0  0  0  0  0  0  0  0  0  0  0
  -34.0820  -29.6570   83.9700 C   0  0  2  0  0  0  0  0  0  0  0  0
  -33.6100  -28.3130   83.4250 C   0  0  0  0  0  0  0  0  0  0  0  0
  -33.2820  -28.1740   82.2450 O   0  0  0  0  0  0  0  0  0  0  0  0
  -34.3710  -30.6400   82.8330 C   0  0  0  0  0  0  0  0  0  0  0  0
  -34.7530  -32.0230   83.3050 C   0  0  0  0  0  0  0  0  0  0  0  0
  -33.7880  -32.9140   83.7570 C   0  0  0  0  0  0  0  0  0  0  0  0
  -36.0730  -32.4430   83.2850 C   0  0  0  0  0  0  0  0  0  0  0  0
  -34.1330  -34.1820   84.1880 C   0  0  0  0  0  0  0  0  0  0  0  0
  -36.4210  -33.7050   83.7080 C   0  0  0  0  0  0  0  0  0  0  0  0
  -35.4540  -34.5710   84.1610 C   0  0  0  0  0  0  0  0  0  0  0  0
  -35.8150  -35.8300   84.5850 O   0  0  0  0  0  0  0  0  0  0  0  0
  -51.1540  -33.3180   99.7500 N   0  0  0  0  0  0  0  0  0  0  0  0
  -50.8680  -34.4160   98.8110 C   0  0  2  0  0  0  0  0  0  0  0  0
  -50.9460  -34.0030   97.3530 C   0  0  0  0  0  0  0  0  0  0  0  0
  -50.1940  -34.5350   96.5260 O   0  0  0  0  0  0  0  0  0  0  0  0
  -51.9360  -35.4650   99.1570 C   0  0  0  0  0  0  0  0  0  0  0  0
  -52.3560  -35.1420  100.5440 C   0  0  0  0  0  0  0  0  0  0  0  0
  -52.2550  -33.6560  100.6690 C   0  0  0  0  0  0  0  0  0  0  0  0
  -46.0230  -30.1020   90.6090 N   0  0  0  0  0  0  0  0  0  0  0  0
  -45.4750  -30.5100   89.3230 C   0  0  2  0  0  0  0  0  0  0  0  0
  -44.3700  -31.5410   89.4590 C   0  0  0  0  0  0  0  0  0  0  0  0
  -44.2040  -32.3810   88.5690 O   0  0  0  0  0  0  0  0  0  0  0  0
  -44.9300  -29.2900   88.5690 C   0  0  0  0  0  0  0  0  0  0  0  0
  -45.9990  -28.2880   88.1680 C   0  0  0  0  0  0  0  0  0  0  0  0
  -45.3750  -27.0040   87.6490 C   0  0  0  0  0  0  0  0  0  0  0  0
  -46.3780  -26.0130   87.2720 N   0  0  0  0  0  0  0  0  0  0  0  0
  -46.0900  -24.8100   86.7850 C   0  0  0  0  0  0  0  0  0  0  0  0
  -44.8250  -24.4460   86.6180 N   0  0  0  0  0  0  0  0  0  0  0  0
  -47.0650  -23.9690   86.4680 N   0  0  0  0  0  0  0  0  0  0  0  0
  -43.6240  -31.4870   90.5580 N   0  0  0  0  0  0  0  0  0  0  0  0
  -42.6400  -32.4910   90.9360 C   0  0  2  0  0  0  0  0  0  0  0  0
  -42.9680  -32.9070   92.3590 C   0  0  0  0  0  0  0  0  0  0  0  0
  -43.2180  -32.0470   93.2090 O   0  0  0  0  0  0  0  0  0  0  0  0
  -41.2160  -31.9190   90.8600 C   0  0  2  0  0  0  0  0  0  0  0  0
  -40.8850  -31.5830   89.4090 C   0  0  0  0  0  0  0  0  0  0  0  0
  -40.2100  -32.8920   91.4840 C   0  0  0  0  0  0  0  0  0  0  0  0
  -39.7650  -30.6040   89.2730 C   0  0  0  0  0  0  0  0  0  0  0  0
  -42.9820  -34.2090   92.6210 N   0  0  0  0  0  0  0  0  0  0  0  0
  -43.3820  -34.6520   93.9480 C   0  0  2  0  0  0  0  0  0  0  0  0
  -42.3860  -34.1300   94.9850 C   0  0  0  0  0  0  0  0  0  0  0  0
  -41.1730  -34.1280   94.7390 O   0  0  0  0  0  0  0  0  0  0  0  0
  -43.5010  -36.1790   94.0260 C   0  0  0  0  0  0  0  0  0  0  0  0
  -42.1970  -36.9590   94.1050 C   0  0  0  0  0  0  0  0  0  0  0  0
  -42.4690  -38.4630   94.1320 C   0  0  0  0  0  0  0  0  0  0  0  0
  -41.3140  -39.2490   94.7430 C   0  0  0  0  0  0  0  0  0  0  0  0
  -41.3920  -40.7070   94.4250 N   0  0  0  0  0  0  0  0  0  0  0  0
  -42.8650  -33.6490   96.1360 N   0  0  0  0  0  0  0  0  0  0  0  0
  -41.9800  -32.9390   97.0770 C   0  0  2  0  0  0  0  0  0  0  0  0
  -40.8460  -33.7840   97.6380 C   0  0  0  0  0  0  0  0  0  0  0  0
  -39.9140  -33.2150   98.2220 O   0  0  0  0  0  0  0  0  0  0  0  0
  -42.9360  -32.4940   98.1930 C   0  0  0  0  0  0  0  0  0  0  0  0
  -44.1130  -33.4130   98.0810 C   0  0  0  0  0  0  0  0  0  0  0  0
  -44.2520  -33.7240   96.6240 C   0  0  0  0  0  0  0  0  0  0  0  0
  -40.8940  -35.1100   97.4950 N   0  0  0  0  0  0  0  0  0  0  0  0
  -39.8180  -35.9480   98.0130 C   0  0  2  0  0  0  0  0  0  0  0  0
  -38.4950  -35.7160   97.2920 C   0  0  0  0  0  0  0  0  0  0  0  0
  -37.4470  -36.1180   97.8080 O   0  0  0  0  0  0  0  0  0  0  0  0
  -40.2130  -37.4230   97.9190 C   0  0  0  0  0  0  0  0  0  0  0  0
  -41.7130  -37.6760   97.9970 C   0  0  0  0  0  0  0  0  0  0  0  0
  -42.3270  -37.2060   99.3030 C   0  0  0  0  0  0  0  0  0  0  0  0
  -41.6260  -37.2210  100.3380 O   0  0  0  0  0  0  0  0  0  0  0  0
  -43.5120  -36.8140   99.2930 O   0  0  0  0  0  0  0  0  0  0  0  0
  -38.5170  -35.0850   96.1170 N   0  0  0  0  0  0  0  0  0  0  0  0
  -37.2910  -34.7590   95.4000 C   0  0  2  0  0  0  0  0  0  0  0  0
  -36.5820  -33.5320   95.9610 C   0  0  0  0  0  0  0  0  0  0  0  0
  -35.4390  -33.2670   95.5740 O   0  0  0  0  0  0  0  0  0  0  0  0
  -37.5920  -34.5420   93.9150 C   0  0  0  0  0  0  0  0  0  0  0  0
  2  1  1  6
  3  2  1  0
  4  3  2  0
  5  2  1  0
  6  5  1  0
  5  7  1  6
  9  8  1  1
 10  9  1  0
 11 10  2  0
 12  9  1  0
 13 12  1  0
 14 10  1  0
 15 14  1  0
 16 15  1  0
 17 16  2  0
 15 18  1  1
 19 18  1  0
 20 19  2  0
 21 19  1  0
 22 16  1  0
 23 22  1  6
 24 23  1  0
 25 24  2  0
 26 23  1  0
 27 26  1  0
 26 28  1  1
 29 27  1  0
 30 24  1  0
 31 30  1  1
 32 31  1  0
 33 32  2  0
 34 31  1  0
 35 34  1  0
 36 34  1  0
 38 37  1  1
 39 38  1  0
 40 39  2  0
 41 38  1  0
 42 41  1  0
 43 42  1  0
 44 43  1  0
 45 44  1  0
 46 45  1  0
 47 45  2  0
 48 39  1  0
 49 48  1  0
 50 49  1  0
 51 50  2  0
 49 52  1  6
 53 52  1  0
 54 53  1  0
 55 54  2  0
 56 54  1  0
 57 50  1  0
 58 57  1  0
 59 58  1  0
 60 59  2  0
 58 61  1  6
 62 61  1  0
 63 62  2  0
 64 62  1  0
 65 63  1  0
 66 64  2  0
 67 66  1  0
 67 65  2  0
 68 67  1  0
 70 69  1  0
 70 71  1  6
 72 71  2  0
 73 70  1  0
 74 73  1  0
 75 74  1  0
 75 69  1  0
 77 76  1  1
 78 77  1  0
 79 78  2  0
 80 77  1  0
 81 80  1  0
 82 81  1  0
 83 82  1  0
 84 83  1  0
 85 84  1  0
 86 84  2  0
 87 78  1  0
 88 87  1  1
 89 88  1  0
 90 89  2  0
 91 88  1  0
 92 91  1  0
 91 93  1  6
 94 92  1  0
 95 89  1  0
 96 95  1  0
 97 96  1  0
 98 97  2  0
 96 99  1  6
100 99  1  0
101100  1  0
102101  1  0
103102  1  0
104 97  1  0
105104  1  0
105106  1  1
107106  2  0
108105  1  0
109108  1  0
110109  1  0
110104  1  0
111106  1  0
112111  1  0
113112  1  0
114113  2  0
112115  1  6
116115  1  0
117116  1  0
118117  2  0
119117  1  0
120113  1  0
121120  1  0
122121  1  0
123122  2  0
121124  1  6
M  END
$$$$
