
     RDKit          3D

117115  0  0  0  0  0  0  0  0999 V2000
   -1.7910   82.5530   16.6810 N   0  0  0  0  0  0  0  0  0  0  0  0
   -2.7560   81.6870   17.3440 C   0  0  2  0  0  0  0  0  0  0  0  0
   -2.3270   81.3540   18.7690 C   0  0  0  0  0  0  0  0  0  0  0  0
   -3.1620   81.3230   19.6790 O   0  0  0  0  0  0  0  0  0  0  0  0
   -2.9460   80.4110   16.5300 C   0  0  0  0  0  0  0  0  0  0  0  0
   -3.4100   80.6420   15.1030 C   0  0  0  0  0  0  0  0  0  0  0  0
   -4.9140   80.7140   14.9780 C   0  0  0  0  0  0  0  0  0  0  0  0
   -5.6340   80.6220   15.9690 O   0  0  0  0  0  0  0  0  0  0  0  0
   -5.4000   80.8740   13.7520 N   0  0  0  0  0  0  0  0  0  0  0  0
   -1.0330   81.1020   18.9810 N   0  0  0  0  0  0  0  0  0  0  0  0
   -0.5550   80.7940   20.3250 C   0  0  2  0  0  0  0  0  0  0  0  0
   -0.5720   82.0200   21.2250 C   0  0  0  0  0  0  0  0  0  0  0  0
   -0.7620   81.8930   22.4400 O   0  0  0  0  0  0  0  0  0  0  0  0
    0.8640   80.2260   20.2790 C   0  0  0  0  0  0  0  0  0  0  0  0
    0.9690   78.8230   19.7210 C   0  0  0  0  0  0  0  0  0  0  0  0
    2.4010   78.4330   19.3920 C   0  0  0  0  0  0  0  0  0  0  0  0
    3.0110   79.0840   18.5200 O   0  0  0  0  0  0  0  0  0  0  0  0
    2.9180   77.4750   20.0040 O   0  0  0  0  0  0  0  0  0  0  0  0
   -0.3730   83.2070   20.6530 N   0  0  0  0  0  0  0  0  0  0  0  0
   -0.2000   84.4090   21.4590 C   0  0  2  0  0  0  0  0  0  0  0  0
   -1.5200   84.9020   22.0420 C   0  0  0  0  0  0  0  0  0  0  0  0
   -1.5820   85.2530   23.2230 O   0  0  0  0  0  0  0  0  0  0  0  0
    0.4580   85.5030   20.6160 C   0  0  0  0  0  0  0  0  0  0  0  0
    0.6560   86.6910   21.3540 O   0  0  0  0  0  0  0  0  0  0  0  0
   -2.5830   84.9150   21.2470 N   0  0  0  0  0  0  0  0  0  0  0  0
   -3.8280   85.5710   21.6200 C   0  0  2  0  0  0  0  0  0  0  0  0
   -4.8730   84.5660   22.0970 C   0  0  0  0  0  0  0  0  0  0  0  0
   -4.8060   83.3700   21.8040 O   0  0  0  0  0  0  0  0  0  0  0  0
   -4.3690   86.3810   20.4390 C   0  0  0  0  0  0  0  0  0  0  0  0
   -3.5090   87.5550   20.0710 C   0  0  0  0  0  0  0  0  0  0  0  0
   -2.4040   87.3920   19.2520 C   0  0  0  0  0  0  0  0  0  0  0  0
   -3.7990   88.8200   20.5470 C   0  0  0  0  0  0  0  0  0  0  0  0
   -1.6040   88.4730   18.9160 C   0  0  0  0  0  0  0  0  0  0  0  0
   -3.0060   89.9030   20.2130 C   0  0  0  0  0  0  0  0  0  0  0  0
   -1.9070   89.7290   19.3980 C   0  0  0  0  0  0  0  0  0  0  0  0
   -5.8460   85.0760   22.8510 N   0  0  0  0  0  0  0  0  0  0  0  0
   -6.9440   84.2550   23.3330 C   0  0  2  0  0  0  0  0  0  0  0  0
   -7.8580   83.8610   22.1750 C   0  0  0  0  0  0  0  0  0  0  0  0
   -7.7590   84.3830   21.0640 O   0  0  0  0  0  0  0  0  0  0  0  0
   -7.7340   84.9920   24.4120 C   0  0  0  0  0  0  0  0  0  0  0  0
   -6.8570   85.6090   25.4840 C   0  0  0  0  0  0  0  0  0  0  0  0
   -7.4080   86.9150   26.0200 C   0  0  0  0  0  0  0  0  0  0  0  0
   -7.7150   87.8120   25.2080 O   0  0  0  0  0  0  0  0  0  0  0  0
   -7.5300   87.0460   27.2570 O   0  0  0  0  0  0  0  0  0  0  0  0
   -8.7770   82.9370   22.4610 N   0  0  0  0  0  0  0  0  0  0  0  0
   -9.5420   82.2830   21.4020 C   0  0  2  0  0  0  0  0  0  0  0  0
  -10.3930   83.2810   20.6240 C   0  0  0  0  0  0  0  0  0  0  0  0
  -10.2810   83.3890   19.3980 O   0  0  0  0  0  0  0  0  0  0  0  0
  -10.4100   81.1750   21.9980 C   0  0  0  0  0  0  0  0  0  0  0  0
  -11.3160   80.4940   20.9930 C   0  0  0  0  0  0  0  0  0  0  0  0
  -12.1460   79.3910   21.6120 C   0  0  0  0  0  0  0  0  0  0  0  0
  -11.6260   78.2660   21.7600 O   0  0  0  0  0  0  0  0  0  0  0  0
  -13.3180   79.6500   21.9530 O   0  0  0  0  0  0  0  0  0  0  0  0
  -10.3690   86.5950   20.7790 N   0  0  0  0  0  0  0  0  0  0  0  0
   -9.5940   87.7300   20.2950 C   0  0  2  0  0  0  0  0  0  0  0  0
   -8.8020   87.3420   19.0560 C   0  0  0  0  0  0  0  0  0  0  0  0
   -8.7280   88.1060   18.0870 O   0  0  0  0  0  0  0  0  0  0  0  0
   -8.6800   88.2650   21.4120 C   0  0  0  0  0  0  0  0  0  0  0  0
   -7.7260   89.3130   20.8640 C   0  0  0  0  0  0  0  0  0  0  0  0
   -9.5170   88.8300   22.5530 C   0  0  0  0  0  0  0  0  0  0  0  0
    5.8490   88.2050   19.4240 N   0  0  0  0  0  0  0  0  0  0  0  0
    6.0970   87.3710   20.6020 C   0  0  2  0  0  0  0  0  0  0  0  0
    6.7340   86.0480   20.2230 C   0  0  0  0  0  0  0  0  0  0  0  0
    6.5490   85.5320   19.1200 O   0  0  0  0  0  0  0  0  0  0  0  0
    4.6960   87.1590   21.1850 C   0  0  0  0  0  0  0  0  0  0  0  0
    3.7880   87.2940   20.0110 C   0  0  0  0  0  0  0  0  0  0  0  0
    4.4130   88.3250   19.1200 C   0  0  0  0  0  0  0  0  0  0  0  0
    7.5000   85.5050   21.1590 N   0  0  0  0  0  0  0  0  0  0  0  0
    8.0710   84.1740   21.0210 C   0  0  2  0  0  0  0  0  0  0  0  0
    7.1240   83.1730   21.6680 C   0  0  0  0  0  0  0  0  0  0  0  0
    6.8260   83.2790   22.8620 O   0  0  0  0  0  0  0  0  0  0  0  0
    9.4510   84.1150   21.6700 C   0  0  0  0  0  0  0  0  0  0  0  0
   10.1210   82.7650   21.5790 C   0  0  0  0  0  0  0  0  0  0  0  0
   10.3530   82.3340   20.1500 C   0  0  0  0  0  0  0  0  0  0  0  0
   11.3430   82.7950   19.5440 O   0  0  0  0  0  0  0  0  0  0  0  0
    9.5480   81.5310   19.6360 O   0  0  0  0  0  0  0  0  0  0  0  0
    6.6430   82.2100   20.8820 N   0  0  0  0  0  0  0  0  0  0  0  0
    5.6760   81.2330   21.3650 C   0  0  2  0  0  0  0  0  0  0  0  0
    6.1440   79.7950   21.1790 C   0  0  0  0  0  0  0  0  0  0  0  0
    5.3530   78.8680   21.3860 O   0  0  0  0  0  0  0  0  0  0  0  0
    4.3250   81.4290   20.6710 C   0  0  2  0  0  0  0  0  0  0  0  0
    4.5010   81.3630   19.2510 O   0  0  0  0  0  0  0  0  0  0  0  0
    3.7290   82.7760   21.0400 C   0  0  0  0  0  0  0  0  0  0  0  0
    7.3980   79.5810   20.7980 N   0  0  0  0  0  0  0  0  0  0  0  0
    7.9070   78.2340   20.5850 C   0  0  2  0  0  0  0  0  0  0  0  0
    8.2340   77.5900   21.9260 C   0  0  0  0  0  0  0  0  0  0  0  0
    9.0020   78.1460   22.7170 O   0  0  0  0  0  0  0  0  0  0  0  0
    9.1410   78.2680   19.6890 C   0  0  0  0  0  0  0  0  0  0  0  0
    7.6580   76.4140   22.1790 N   0  0  0  0  0  0  0  0  0  0  0  0
    7.9180   75.7160   23.4320 C   0  0  2  0  0  0  0  0  0  0  0  0
    9.1880   74.8800   23.3740 C   0  0  0  0  0  0  0  0  0  0  0  0
    9.8340   74.6740   24.4050 O   0  0  0  0  0  0  0  0  0  0  0  0
    6.7330   74.8200   23.7960 C   0  0  2  0  0  0  0  0  0  0  0  0
    6.2290   74.1880   22.6120 O   0  0  0  0  0  0  0  0  0  0  0  0
    5.6270   75.6310   24.4480 C   0  0  0  0  0  0  0  0  0  0  0  0
   -8.6010   77.8210   14.0280 N   0  0  0  0  0  0  0  0  0  0  0  0
   -8.1530   77.8280   15.4170 C   0  0  2  0  0  0  0  0  0  0  0  0
   -8.4050   76.4840   16.0870 C   0  0  0  0  0  0  0  0  0  0  0  0
   -7.5090   75.9200   16.7240 O   0  0  0  0  0  0  0  0  0  0  0  0
   -8.8510   78.9490   16.1860 C   0  0  0  0  0  0  0  0  0  0  0  0
   -8.7090   78.8480   17.6950 C   0  0  0  0  0  0  0  0  0  0  0  0
   -7.5470   79.6820   18.1980 C   0  0  0  0  0  0  0  0  0  0  0  0
   -7.5080   79.7700   19.6540 N   0  0  0  0  0  0  0  0  0  0  0  0
   -6.6530   80.5310   20.3270 C   0  0  0  0  0  0  0  0  0  0  0  0
   -5.7680   81.2700   19.6730 N   0  0  0  0  0  0  0  0  0  0  0  0
   -6.6840   80.5570   21.6520 N   0  0  0  0  0  0  0  0  0  0  0  0
   -5.3970   73.7610   17.5280 N   0  0  0  0  0  0  0  0  0  0  0  0
   -5.2640   73.3600   18.9220 C   0  0  2  0  0  0  0  0  0  0  0  0
   -5.9070   72.0140   19.2190 C   0  0  0  0  0  0  0  0  0  0  0  0
   -5.8770   71.5720   20.3720 O   0  0  0  0  0  0  0  0  0  0  0  0
   -5.8550   74.4310   19.8450 C   0  0  0  0  0  0  0  0  0  0  0  0
   -4.9610   75.6220   20.0380 C   0  0  0  0  0  0  0  0  0  0  0  0
   -3.8590   75.5470   20.8700 C   0  0  0  0  0  0  0  0  0  0  0  0
   -5.2350   76.8220   19.4070 C   0  0  0  0  0  0  0  0  0  0  0  0
   -3.0350   76.6410   21.0540 C   0  0  0  0  0  0  0  0  0  0  0  0
   -4.4160   77.9210   19.5920 C   0  0  0  0  0  0  0  0  0  0  0  0
   -3.3150   77.8280   20.4150 C   0  0  0  0  0  0  0  0  0  0  0  0
  2  1  1  6
  3  2  1  0
  4  3  2  0
  5  2  1  0
  6  5  1  0
  7  6  1  0
  8  7  2  0
  9  7  1  0
 10  3  1  0
 11 10  1  0
 12 11  1  0
 13 12  2  0
 11 14  1  6
 15 14  1  0
 16 15  1  0
 17 16  2  0
 18 16  1  0
 19 12  1  0
 20 19  1  0
 21 20  1  0
 22 21  2  0
 20 23  1  6
 24 23  1  0
 25 21  1  0
 26 25  1  0
 27 26  1  0
 28 27  2  0
 26 29  1  6
 30 29  1  0
 31 30  2  0
 32 30  1  0
 33 31  1  0
 34 32  2  0
 35 34  1  0
 35 33  2  0
 36 27  1  0
 37 36  1  0
 38 37  1  0
 39 38  2  0
 37 40  1  1
 41 40  1  0
 42 41  1  0
 43 42  2  0
 44 42  1  0
 45 38  1  0
 46 45  1  0
 47 46  1  0
 48 47  2  0
 46 49  1  1
 50 49  1  0
 51 50  1  0
 52 51  2  0
 53 51  1  0
 55 54  1  1
 56 55  1  0
 57 56  2  0
 58 55  1  0
 59 58  1  0
 60 58  1  0
 62 61  1  0
 62 63  1  6
 64 63  2  0
 65 62  1  0
 66 65  1  0
 67 66  1  0
 67 61  1  0
 68 63  1  0
 69 68  1  0
 70 69  1  0
 71 70  2  0
 69 72  1  1
 73 72  1  0
 74 73  1  0
 75 74  2  0
 76 74  1  0
 77 70  1  0
 78 77  1  6
 79 78  1  0
 80 79  2  0
 81 78  1  0
 82 81  1  0
 81 83  1  6
 84 79  1  0
 85 84  1  0
 86 85  1  0
 87 86  2  0
 85 88  1  6
 89 86  1  0
 90 89  1  6
 91 90  1  0
 92 91  2  0
 93 90  1  0
 94 93  1  0
 93 95  1  6
 97 96  1  6
 98 97  1  0
 99 98  2  0
100 97  1  0
101100  1  0
102101  1  0
103102  1  0
104103  1  0
105104  1  0
106104  2  0
108107  1  6
109108  1  0
110109  2  0
111108  1  0
112111  1  0
113112  2  0
114112  1  0
115113  1  0
116114  2  0
117116  1  0
117115  2  0
M  END
$$$$
