
     RDKit          3D

147143  0  0  0  0  0  0  0  0999 V2000
  142.8820  156.4040  182.4720 N   0  0  0  0  0  0  0  0  0  0  0  0
  143.8930  157.4350  182.3480 C   0  0  2  0  0  0  0  0  0  0  0  0
  143.3330  158.8440  182.3600 C   0  0  0  0  0  0  0  0  0  0  0  0
  144.1000  159.7880  182.5680 O   0  0  0  0  0  0  0  0  0  0  0  0
  144.6890  157.2310  181.0590 C   0  0  0  0  0  0  0  0  0  0  0  0
  142.0230  159.0150  182.1620 N   0  0  0  0  0  0  0  0  0  0  0  0
  141.4710  160.3420  181.9190 C   0  0  2  0  0  0  0  0  0  0  0  0
  141.4010  161.2080  183.1680 C   0  0  0  0  0  0  0  0  0  0  0  0
  141.1970  162.4180  183.0430 O   0  0  0  0  0  0  0  0  0  0  0  0
  140.0790  160.2320  181.2920 C   0  0  2  0  0  0  0  0  0  0  0  0
  139.6540  161.5270  180.8570 O   0  0  0  0  0  0  0  0  0  0  0  0
  139.0690  159.6990  182.2900 C   0  0  0  0  0  0  0  0  0  0  0  0
  141.5710  160.6380  184.3540 N   0  0  0  0  0  0  0  0  0  0  0  0
  141.5900  161.4400  185.5580 C   0  0  0  0  0  0  0  0  0  0  0  0
  143.0110  161.7810  185.9330 C   0  0  0  0  0  0  0  0  0  0  0  0
  143.3420  162.9340  186.2190 O   0  0  0  0  0  0  0  0  0  0  0  0
  143.8610  160.7660  185.9330 N   0  0  0  0  0  0  0  0  0  0  0  0
  145.2910  160.9440  186.0890 C   0  0  2  0  0  0  0  0  0  0  0  0
  145.9800  159.9440  185.1870 C   0  0  0  0  0  0  0  0  0  0  0  0
  145.4910  158.8290  184.9930 O   0  0  0  0  0  0  0  0  0  0  0  0
  145.7560  160.7280  187.5360 C   0  0  0  0  0  0  0  0  0  0  0  0
  147.2070  161.1490  187.7630 C   0  0  0  0  0  0  0  0  0  0  0  0
  147.8660  161.6700  186.8650 O   0  0  0  0  0  0  0  0  0  0  0  0
  147.7120  160.9020  188.9640 N   0  0  0  0  0  0  0  0  0  0  0  0
  147.1150  160.3510  184.6330 N   0  0  0  0  0  0  0  0  0  0  0  0
  148.0410  159.4080  184.0260 C   0  0  2  0  0  0  0  0  0  0  0  0
  149.2360  159.3180  184.9580 C   0  0  0  0  0  0  0  0  0  0  0  0
  150.1600  160.1390  184.8710 O   0  0  0  0  0  0  0  0  0  0  0  0
  148.4710  159.8480  182.6250 C   0  0  0  0  0  0  0  0  0  0  0  0
  149.1880  158.7440  181.8660 C   0  0  0  0  0  0  0  0  0  0  0  0
  149.3670  157.6390  182.3720 O   0  0  0  0  0  0  0  0  0  0  0  0
  149.6050  159.0410  180.6480 N   0  0  0  0  0  0  0  0  0  0  0  0
  154.0760  158.6220  183.2190 N   0  0  0  0  0  0  0  0  0  0  0  0
  153.9540  159.0920  181.8470 C   0  0  2  0  0  0  0  0  0  0  0  0
  154.9880  158.4050  180.9530 C   0  0  0  0  0  0  0  0  0  0  0  0
  155.5880  157.3910  181.3180 O   0  0  0  0  0  0  0  0  0  0  0  0
  154.0590  160.6140  181.8010 C   0  0  0  0  0  0  0  0  0  0  0  0
  155.3660  161.1570  182.3800 C   0  0  0  0  0  0  0  0  0  0  0  0
  156.2600  160.4210  182.7660 O   0  0  0  0  0  0  0  0  0  0  0  0
  155.4720  162.4730  182.4300 N   0  0  0  0  0  0  0  0  0  0  0  0
  155.1730  158.9610  179.7470 N   0  0  0  0  0  0  0  0  0  0  0  0
  155.7480  158.2790  178.5790 C   0  0  2  0  0  0  0  0  0  0  0  0
  154.9060  157.0690  178.2160 C   0  0  0  0  0  0  0  0  0  0  0  0
  155.4160  156.0690  177.7170 O   0  0  0  0  0  0  0  0  0  0  0  0
  157.2120  157.8600  178.7780 C   0  0  0  0  0  0  0  0  0  0  0  0
  158.1770  158.9850  178.9630 C   0  0  0  0  0  0  0  0  0  0  0  0
  158.0050  160.1880  178.3060 C   0  0  0  0  0  0  0  0  0  0  0  0
  159.2150  158.8760  179.8760 C   0  0  0  0  0  0  0  0  0  0  0  0
  158.8870  161.2250  178.4920 C   0  0  0  0  0  0  0  0  0  0  0  0
  160.1010  159.8990  180.0700 C   0  0  0  0  0  0  0  0  0  0  0  0
  159.9270  161.0750  179.3860 C   0  0  0  0  0  0  0  0  0  0  0  0
  160.8010  162.1100  179.5920 O   0  0  0  0  0  0  0  0  0  0  0  0
  153.6030  157.1610  178.4450 N   0  0  0  0  0  0  0  0  0  0  0  0
  152.7450  155.9930  178.4660 C   0  0  2  0  0  0  0  0  0  0  0  0
  151.7740  155.9190  177.3070 C   0  0  0  0  0  0  0  0  0  0  0  0
  151.5620  154.8270  176.7850 O   0  0  0  0  0  0  0  0  0  0  0  0
  151.9630  155.9460  179.7760 C   0  0  0  0  0  0  0  0  0  0  0  0
  151.1930  157.0510  176.9040 N   0  0  0  0  0  0  0  0  0  0  0  0
  150.1650  157.1540  175.8610 C   0  0  2  0  0  0  0  0  0  0  0  0
  148.9880  156.2280  176.1770 C   0  0  0  0  0  0  0  0  0  0  0  0
  148.7070  155.2550  175.4810 O   0  0  0  0  0  0  0  0  0  0  0  0
  150.7550  156.8860  174.4740 C   0  0  2  0  0  0  0  0  0  0  0  0
  151.9640  157.6300  174.3470 O   0  0  0  0  0  0  0  0  0  0  0  0
  149.8450  157.3900  173.4040 C   0  0  0  0  0  0  0  0  0  0  0  0
  145.7630  157.2460  176.6680 N   0  0  0  0  0  0  0  0  0  0  0  0
  144.4620  157.6220  176.1500 C   0  0  2  0  0  0  0  0  0  0  0  0
  144.6570  158.1830  174.7600 C   0  0  0  0  0  0  0  0  0  0  0  0
  145.7800  158.3990  174.3090 O   0  0  0  0  0  0  0  0  0  0  0  0
  143.7350  158.6270  177.0420 C   0  0  2  0  0  0  0  0  0  0  0  0
  142.4000  158.8010  176.5590 O   0  0  0  0  0  0  0  0  0  0  0  0
  144.4270  159.9450  177.0140 C   0  0  0  0  0  0  0  0  0  0  0  0
  143.7730  161.0840  173.5190 N   0  0  0  0  0  0  0  0  0  0  0  0
  144.2250  162.4650  173.4540 C   0  0  2  0  0  0  0  0  0  0  0  0
  145.7330  162.5640  173.6070 C   0  0  0  0  0  0  0  0  0  0  0  0
  146.3630  163.4070  172.9610 O   0  0  0  0  0  0  0  0  0  0  0  0
  143.5390  163.3070  174.5200 C   0  0  0  0  0  0  0  0  0  0  0  0
  142.0740  163.5470  174.2790 C   0  0  0  0  0  0  0  0  0  0  0  0
  141.2010  162.4870  174.8930 C   0  0  0  0  0  0  0  0  0  0  0  0
  141.7370  161.5880  175.5690 O   0  0  0  0  0  0  0  0  0  0  0  0
  139.9730  162.5630  174.7150 O   0  0  0  0  0  0  0  0  0  0  0  0
  146.3310  161.7210  174.4550 N   0  0  0  0  0  0  0  0  0  0  0  0
  147.7760  161.7690  174.6470 C   0  0  2  0  0  0  0  0  0  0  0  0
  148.5260  161.3650  173.4010 C   0  0  0  0  0  0  0  0  0  0  0  0
  149.6270  161.8570  173.1590 O   0  0  0  0  0  0  0  0  0  0  0  0
  148.1990  160.8850  175.8020 C   0  0  0  0  0  0  0  0  0  0  0  0
  147.7740  161.4040  177.1230 C   0  0  0  0  0  0  0  0  0  0  0  0
  148.1560  160.4790  178.2460 C   0  0  0  0  0  0  0  0  0  0  0  0
  148.7020  159.3950  177.9730 O   0  0  0  0  0  0  0  0  0  0  0  0
  147.9000  160.8220  179.4150 O   0  0  0  0  0  0  0  0  0  0  0  0
  147.9560  160.4770  172.6020 N   0  0  0  0  0  0  0  0  0  0  0  0
  148.5430  160.2420  171.3000 C   0  0  2  0  0  0  0  0  0  0  0  0
  148.2980  161.4210  170.3930 C   0  0  0  0  0  0  0  0  0  0  0  0
  149.1530  161.7750  169.5820 O   0  0  0  0  0  0  0  0  0  0  0  0
  147.9760  158.9830  170.6770 C   0  0  0  0  0  0  0  0  0  0  0  0
  148.5540  158.7300  169.3320 C   0  0  0  0  0  0  0  0  0  0  0  0
  149.8640  158.3290  169.1920 C   0  0  0  0  0  0  0  0  0  0  0  0
  147.7960  158.8950  168.2030 C   0  0  0  0  0  0  0  0  0  0  0  0
  150.3980  158.0960  167.9580 C   0  0  0  0  0  0  0  0  0  0  0  0
  148.3160  158.6680  166.9770 C   0  0  0  0  0  0  0  0  0  0  0  0
  149.6170  158.2700  166.8530 C   0  0  0  0  0  0  0  0  0  0  0  0
  150.1360  158.0400  165.6080 O   0  0  0  0  0  0  0  0  0  0  0  0
  147.7150  164.7310  170.9730 N   0  0  0  0  0  0  0  0  0  0  0  0
  148.4510  165.9580  171.2380 C   0  0  2  0  0  0  0  0  0  0  0  0
  149.9200  165.7790  170.9090 C   0  0  0  0  0  0  0  0  0  0  0  0
  150.5530  166.6720  170.3380 O   0  0  0  0  0  0  0  0  0  0  0  0
  148.2270  166.3800  172.6950 C   0  0  0  0  0  0  0  0  0  0  0  0
  149.1550  167.4830  173.1010 C   0  0  0  0  0  0  0  0  0  0  0  0
  146.8320  166.8580  172.8300 C   0  0  0  0  0  0  0  0  0  0  0  0
  150.4710  164.6040  171.2120 N   0  0  0  0  0  0  0  0  0  0  0  0
  151.8830  164.3270  170.9740 C   0  0  2  0  0  0  0  0  0  0  0  0
  152.2260  164.3240  169.4960 C   0  0  0  0  0  0  0  0  0  0  0  0
  153.3720  164.5900  169.1320 O   0  0  0  0  0  0  0  0  0  0  0  0
  152.2400  162.9920  171.6190 C   0  0  0  0  0  0  0  0  0  0  0  0
  153.7020  162.6780  171.7130 C   0  0  0  0  0  0  0  0  0  0  0  0
  153.9060  161.3300  172.3690 C   0  0  0  0  0  0  0  0  0  0  0  0
  153.6540  161.4050  173.8600 C   0  0  0  0  0  0  0  0  0  0  0  0
  153.9880  160.1260  174.5270 N   0  0  0  0  0  0  0  0  0  0  0  0
  148.3350  167.8290  167.2530 N   0  0  0  0  0  0  0  0  0  0  0  0
  147.0160  167.9360  166.6470 C   0  0  2  0  0  0  0  0  0  0  0  0
  146.0640  168.5130  167.6820 C   0  0  0  0  0  0  0  0  0  0  0  0
  146.1240  168.1480  168.8580 O   0  0  0  0  0  0  0  0  0  0  0  0
  146.5370  166.5670  166.1190 C   0  0  2  0  0  0  0  0  0  0  0  0
  147.3800  166.1490  164.9200 C   0  0  0  0  0  0  0  0  0  0  0  0
  145.0860  166.5740  165.7330 C   0  0  0  0  0  0  0  0  0  0  0  0
  147.1440  164.7640  164.4740 C   0  0  0  0  0  0  0  0  0  0  0  0
  145.2260  169.4500  167.2480 N   0  0  0  0  0  0  0  0  0  0  0  0
  144.2750  170.1270  168.1160 C   0  0  2  0  0  0  0  0  0  0  0  0
  143.2540  169.1490  168.6930 C   0  0  0  0  0  0  0  0  0  0  0  0
  142.9510  168.1120  168.1060 O   0  0  0  0  0  0  0  0  0  0  0  0
  143.5700  171.2120  167.3090 C   0  0  0  0  0  0  0  0  0  0  0  0
  142.8500  172.2120  168.1680 C   0  0  0  0  0  0  0  0  0  0  0  0
  142.9030  172.1050  169.4050 O   0  0  0  0  0  0  0  0  0  0  0  0
  142.2120  173.1190  167.6010 O   0  0  0  0  0  0  0  0  0  0  0  0
  142.7250  169.4910  169.8680 N   0  0  0  0  0  0  0  0  0  0  0  0
  141.6450  168.7390  170.4850 C   0  0  2  0  0  0  0  0  0  0  0  0
  140.3160  169.4710  170.4610 C   0  0  0  0  0  0  0  0  0  0  0  0
  139.2850  168.8540  170.7410 O   0  0  0  0  0  0  0  0  0  0  0  0
  141.9720  168.4090  171.9410 C   0  0  0  0  0  0  0  0  0  0  0  0
  143.2010  167.5730  172.2330 C   0  0  0  0  0  0  0  0  0  0  0  0
  143.2770  167.3470  173.7200 C   0  0  0  0  0  0  0  0  0  0  0  0
  143.1440  166.2770  171.5000 C   0  0  0  0  0  0  0  0  0  0  0  0
  140.3170  170.7660  170.1830 N   0  0  0  0  0  0  0  0  0  0  0  0
  139.0750  171.4940  170.0460 C   0  0  2  0  0  0  0  0  0  0  0  0
  138.3770  171.0560  168.7620 C   0  0  0  0  0  0  0  0  0  0  0  0
  139.0380  170.6690  167.7980 O   0  0  0  0  0  0  0  0  0  0  0  0
  139.3490  172.9910  170.0100 C   0  0  0  0  0  0  0  0  0  0  0  0
  140.0160  173.3410  168.8160 O   0  0  0  0  0  0  0  0  0  0  0  0
  2  1  1  0
  3  2  1  0
  4  3  2  0
  2  5  1  6
  6  3  1  0
  7  6  1  1
  8  7  1  0
  9  8  2  0
 10  7  1  0
 11 10  1  0
 10 12  1  1
 13  8  1  0
 14 13  1  0
 15 14  1  0
 16 15  2  0
 17 15  1  0
 18 17  1  0
 19 18  1  0
 20 19  2  0
 18 21  1  1
 22 21  1  0
 23 22  2  0
 24 22  1  0
 25 19  1  0
 26 25  1  0
 27 26  1  0
 28 27  2  0
 26 29  1  6
 30 29  1  0
 31 30  2  0
 32 30  1  0
 34 33  1  1
 35 34  1  0
 36 35  2  0
 37 34  1  0
 38 37  1  0
 39 38  2  0
 40 38  1  0
 41 35  1  0
 42 41  1  0
 43 42  1  0
 44 43  2  0
 42 45  1  1
 46 45  1  0
 47 46  2  0
 48 46  1  0
 49 47  1  0
 50 48  2  0
 51 49  2  0
 51 50  1  0
 52 51  1  0
 53 43  1  0
 54 53  1  0
 55 54  1  0
 56 55  2  0
 54 57  1  1
 58 55  1  0
 59 58  1  1
 60 59  1  0
 61 60  2  0
 62 59  1  0
 63 62  1  0
 62 64  1  6
 66 65  1  1
 67 66  1  0
 68 67  2  0
 69 66  1  0
 70 69  1  0
 69 71  1  6
 73 72  1  1
 74 73  1  0
 75 74  2  0
 76 73  1  0
 77 76  1  0
 78 77  1  0
 79 78  2  0
 80 78  1  0
 81 74  1  0
 82 81  1  0
 83 82  1  0
 84 83  2  0
 82 85  1  1
 86 85  1  0
 87 86  1  0
 88 87  2  0
 89 87  1  0
 90 83  1  0
 91 90  1  0
 92 91  1  0
 93 92  2  0
 91 94  1  6
 95 94  1  0
 96 95  2  0
 97 95  1  0
 98 96  1  0
 99 97  2  0
100 99  1  0
100 98  2  0
101100  1  0
103102  1  1
104103  1  0
105104  2  0
106103  1  0
107106  1  0
108106  1  0
109104  1  0
110109  1  0
111110  1  0
112111  2  0
110113  1  6
114113  1  0
115114  1  0
116115  1  0
117116  1  0
119118  1  1
120119  1  0
121120  2  0
122119  1  0
123122  1  0
122124  1  6
125123  1  0
126120  1  0
127126  1  0
128127  1  0
129128  2  0
127130  1  6
131130  1  0
132131  2  0
133131  1  0
134128  1  0
135134  1  0
136135  1  0
137136  2  0
135138  1  1
139138  1  0
140139  1  0
141139  1  0
142136  1  0
143142  1  0
144143  1  0
145144  2  0
143146  1  6
147146  1  0
M  END
$$$$
