
     RDKit          3D

102103  0  0  0  0  0  0  0  0999 V2000
   -4.0400   49.1010  -50.1560 N   0  0  0  0  0  0  0  0  0  0  0  0
   -5.1070   48.0710  -50.0530 C   0  0  2  0  0  0  0  0  0  0  0  0
   -4.8660   47.2520  -48.7940 C   0  0  0  0  0  0  0  0  0  0  0  0
   -3.7120   47.0460  -48.4230 O   0  0  0  0  0  0  0  0  0  0  0  0
   -5.1040   47.1770  -51.2930 C   0  0  0  0  0  0  0  0  0  0  0  0
   -5.4930   47.8980  -52.5550 C   0  0  0  0  0  0  0  0  0  0  0  0
   -6.8150   48.2380  -52.7810 C   0  0  0  0  0  0  0  0  0  0  0  0
   -4.5380   48.2630  -53.4920 C   0  0  0  0  0  0  0  0  0  0  0  0
   -7.1790   48.9060  -53.9380 C   0  0  0  0  0  0  0  0  0  0  0  0
   -4.8990   48.9380  -54.6430 C   0  0  0  0  0  0  0  0  0  0  0  0
   -6.2180   49.2570  -54.8640 C   0  0  0  0  0  0  0  0  0  0  0  0
   -5.9200   46.7180  -48.1280 N   0  0  0  0  0  0  0  0  0  0  0  0
   -5.7310   45.9570  -46.8900 C   0  0  2  0  0  0  0  0  0  0  0  0
   -4.8920   44.6900  -47.1210 C   0  0  0  0  0  0  0  0  0  0  0  0
   -5.0170   44.0940  -48.1680 O   0  0  0  0  0  0  0  0  0  0  0  0
   -7.1650   45.6070  -46.4600 C   0  0  0  0  0  0  0  0  0  0  0  0
   -7.9480   45.6130  -47.7580 C   0  0  0  0  0  0  0  0  0  0  0  0
   -7.3320   46.7530  -48.5510 C   0  0  0  0  0  0  0  0  0  0  0  0
   -4.0380   44.3450  -46.1550 N   0  0  0  0  0  0  0  0  0  0  0  0
   -3.2640   43.0740  -46.0720 C   0  0  2  0  0  0  0  0  0  0  0  0
   -2.1680   42.9920  -47.1430 C   0  0  0  0  0  0  0  0  0  0  0  0
   -1.7150   41.8640  -47.4150 O   0  0  0  0  0  0  0  0  0  0  0  0
   -4.1790   41.8570  -46.1740 C   0  0  0  0  0  0  0  0  0  0  0  0
   -5.4130   41.7700  -44.8450 S   0  0  0  0  0  0  0  0  0  0  0  0
   -1.7390   44.1280  -47.7040 N   0  0  0  0  0  0  0  0  0  0  0  0
   -0.5420   44.2270  -48.5900 C   0  0  2  0  0  0  0  0  0  0  0  0
    0.4770   45.1140  -47.8640 C   0  0  0  0  0  0  0  0  0  0  0  0
    0.0410   46.0880  -47.2380 O   0  0  0  0  0  0  0  0  0  0  0  0
   -0.9410   44.7190  -49.9950 C   0  0  0  0  0  0  0  0  0  0  0  0
   -0.8240   46.2270  -50.2180 C   0  0  0  0  0  0  0  0  0  0  0  0
   -1.1370   46.6810  -51.6270 C   0  0  0  0  0  0  0  0  0  0  0  0
   -1.7440   47.7280  -51.8280 O   0  0  0  0  0  0  0  0  0  0  0  0
   -0.6950   45.9190  -52.6170 N   0  0  0  0  0  0  0  0  0  0  0  0
    1.7740   44.8070  -47.9500 N   0  0  0  0  0  0  0  0  0  0  0  0
    2.8180   45.4730  -47.1230 C   0  0  2  0  0  0  0  0  0  0  0  0
    3.1570   46.8270  -47.7520 C   0  0  0  0  0  0  0  0  0  0  0  0
    4.0540   46.8930  -48.6000 O   0  0  0  0  0  0  0  0  0  0  0  0
    4.0130   44.5460  -46.8690 C   0  0  0  0  0  0  0  0  0  0  0  0
    3.8020   43.5970  -45.6870 C   0  0  0  0  0  0  0  0  0  0  0  0
    2.6250   43.2530  -45.3790 O   0  0  0  0  0  0  0  0  0  0  0  0
    4.8090   43.2100  -45.0680 O   0  0  0  0  0  0  0  0  0  0  0  0
   -1.3180   35.9690  -40.0580 N   0  0  0  0  0  0  0  0  0  0  0  0
   -1.7680   36.0370  -41.4710 C   0  0  2  0  0  0  0  0  0  0  0  0
   -2.9480   36.9950  -41.5850 C   0  0  0  0  0  0  0  0  0  0  0  0
   -3.7830   37.0350  -40.6680 O   0  0  0  0  0  0  0  0  0  0  0  0
   -2.1280   34.6520  -41.9990 C   0  0  0  0  0  0  0  0  0  0  0  0
   -0.9500   33.7500  -42.1060 C   0  0  0  0  0  0  0  0  0  0  0  0
    0.2070   34.1230  -42.7660 N   0  0  0  0  0  0  0  0  0  0  0  0
   -0.7470   32.5010  -41.6440 C   0  0  0  0  0  0  0  0  0  0  0  0
    1.0800   33.1430  -42.6940 C   0  0  0  0  0  0  0  0  0  0  0  0
    0.5210   32.1380  -42.0100 N   0  0  0  0  0  0  0  0  0  0  0  0
   -2.9930   37.7410  -42.6830 N   0  0  0  0  0  0  0  0  0  0  0  0
   -4.0270   38.7620  -42.9680 C   0  0  2  0  0  0  0  0  0  0  0  0
   -5.0060   38.1730  -43.9890 C   0  0  0  0  0  0  0  0  0  0  0  0
   -4.5440   37.7550  -45.0640 O   0  0  0  0  0  0  0  0  0  0  0  0
   -3.3540   40.0400  -43.4490 C   0  0  0  0  0  0  0  0  0  0  0  0
   -4.3260   41.5340  -43.1300 S   0  0  0  0  0  0  0  0  0  0  0  0
   -7.3410   38.4060  -46.7070 N   0  0  0  0  0  0  0  0  0  0  0  0
   -7.7430   39.2420  -47.8690 C   0  0  2  0  0  0  0  0  0  0  0  0
   -7.1320   38.7100  -49.1730 C   0  0  0  0  0  0  0  0  0  0  0  0
   -5.9320   38.3270  -49.2460 O   0  0  0  0  0  0  0  0  0  0  0  0
   -7.3240   40.6940  -47.6660 C   0  0  0  0  0  0  0  0  0  0  0  0
   -7.9540   41.6740  -48.6190 C   0  0  0  0  0  0  0  0  0  0  0  0
   -9.2000   42.2080  -48.3430 C   0  0  0  0  0  0  0  0  0  0  0  0
   -7.3060   42.0690  -49.7770 C   0  0  0  0  0  0  0  0  0  0  0  0
   -9.7890   43.1230  -49.2040 C   0  0  0  0  0  0  0  0  0  0  0  0
   -7.8940   42.9860  -50.6340 C   0  0  0  0  0  0  0  0  0  0  0  0
   -9.1350   43.5100  -50.3490 C   0  0  0  0  0  0  0  0  0  0  0  0
   -7.9690   38.7080  -50.2030 N   0  0  0  0  0  0  0  0  0  0  0  0
   -7.6520   38.2160  -51.5610 C   0  0  2  0  0  0  0  0  0  0  0  0
   -8.2880   39.1760  -52.5560 C   0  0  0  0  0  0  0  0  0  0  0  0
   -9.4960   39.3820  -52.5090 O   0  0  0  0  0  0  0  0  0  0  0  0
   -8.1450   36.8090  -51.7360 C   0  0  0  0  0  0  0  0  0  0  0  0
   -7.4720   35.9470  -50.8410 O   0  0  0  0  0  0  0  0  0  0  0  0
   -7.5000   39.8090  -53.4560 N   0  0  0  0  0  0  0  0  0  0  0  0
   -8.0420   40.8520  -54.3280 C   0  0  2  0  0  0  0  0  0  0  0  0
   -9.1520   40.3140  -55.2390 C   0  0  0  0  0  0  0  0  0  0  0  0
   -8.8800   39.4570  -56.0360 O   0  0  0  0  0  0  0  0  0  0  0  0
   -6.8300   41.3280  -55.1430 C   0  0  0  0  0  0  0  0  0  0  0  0
   -5.7950   40.2170  -55.0150 C   0  0  0  0  0  0  0  0  0  0  0  0
   -6.0640   39.5600  -53.6790 C   0  0  0  0  0  0  0  0  0  0  0  0
  -12.0090   29.7150  -46.6860 N   0  0  0  0  0  0  0  0  0  0  0  0
  -11.4260   28.7410  -47.6470 C   0  0  2  0  0  0  0  0  0  0  0  0
  -10.4260   27.8660  -46.8960 C   0  0  0  0  0  0  0  0  0  0  0  0
   -9.8570   28.3540  -45.9000 O   0  0  0  0  0  0  0  0  0  0  0  0
  -10.7390   29.4460  -48.8160 C   0  0  0  0  0  0  0  0  0  0  0  0
  -11.6850   30.0770  -49.8230 C   0  0  0  0  0  0  0  0  0  0  0  0
  -10.9950   30.6970  -51.0160 C   0  0  0  0  0  0  0  0  0  0  0  0
  -10.5590   32.1260  -50.7680 C   0  0  0  0  0  0  0  0  0  0  0  0
   -9.2080   32.3910  -51.3120 N   0  0  0  0  0  0  0  0  0  0  0  0
   -6.7570   31.7430  -46.9720 N   0  0  0  0  0  0  0  0  0  0  0  0
   -6.3270   33.0470  -47.5420 C   0  0  2  0  0  0  0  0  0  0  0  0
   -7.4790   34.0430  -47.4630 C   0  0  0  0  0  0  0  0  0  0  0  0
   -7.1920   35.2250  -47.3430 O   0  0  0  0  0  0  0  0  0  0  0  0
   -5.9330   32.9760  -49.0200 C   0  0  0  0  0  0  0  0  0  0  0  0
   -5.4360   31.6340  -49.5110 C   0  0  0  0  0  0  0  0  0  0  0  0
   -4.7780   30.9400  -48.7180 O   0  0  0  0  0  0  0  0  0  0  0  0
   -5.7230   31.3000  -50.6800 O   0  0  0  0  0  0  0  0  0  0  0  0
   -8.7210   33.5820  -47.6140 N   0  0  0  0  0  0  0  0  0  0  0  0
   -9.8930   34.4630  -47.7830 C   0  0  0  0  0  0  0  0  0  0  0  0
  -11.2050   33.7480  -47.5380 C   0  0  0  0  0  0  0  0  0  0  0  0
  -11.1900   32.5300  -47.2480 O   0  0  0  0  0  0  0  0  0  0  0  0
  2  1  1  6
  3  2  1  0
  4  3  2  0
  5  2  1  0
  6  5  1  0
  7  6  2  0
  8  6  1  0
  9  7  1  0
 10  8  2  0
 11  9  2  0
 11 10  1  0
 12  3  1  0
 13 12  1  0
 13 14  1  6
 15 14  2  0
 16 13  1  0
 17 16  1  0
 18 17  1  0
 18 12  1  0
 19 14  1  0
 20 19  1  0
 21 20  1  0
 22 21  2  0
 20 23  1  6
 24 23  1  0
 25 21  1  0
 26 25  1  0
 27 26  1  0
 28 27  2  0
 26 29  1  6
 30 29  1  0
 31 30  1  0
 32 31  2  0
 33 31  1  0
 34 27  1  0
 35 34  1  0
 36 35  1  0
 37 36  2  0
 35 38  1  6
 39 38  1  0
 40 39  2  0
 41 39  1  0
 43 42  1  1
 44 43  1  0
 45 44  2  0
 46 43  1  0
 47 46  1  0
 48 47  1  0
 49 47  2  0
 50 48  2  0
 51 49  1  0
 51 50  1  0
 52 44  1  0
 53 52  1  0
 54 53  1  0
 55 54  2  0
 53 56  1  6
 57 24  1  0
 57 56  1  0
 59 58  1  1
 60 59  1  0
 61 60  2  0
 62 59  1  0
 63 62  1  0
 64 63  2  0
 65 63  1  0
 66 64  1  0
 67 65  2  0
 68 67  1  0
 68 66  2  0
 69 60  1  0
 70 69  1  0
 71 70  1  0
 72 71  2  0
 70 73  1  1
 74 73  1  0
 75 71  1  0
 76 75  1  0
 76 77  1  6
 78 77  2  0
 79 76  1  0
 80 79  1  0
 81 80  1  0
 81 75  1  0
 83 82  1  1
 84 83  1  0
 85 84  2  0
 86 83  1  0
 87 86  1  0
 88 87  1  0
 89 88  1  0
 90 89  1  0
 92 91  1  6
 93 92  1  0
 94 93  2  0
 95 92  1  0
 96 95  1  0
 97 96  2  0
 98 96  1  0
 99 93  1  0
100 99  1  0
101100  1  0
102101  2  0
M  END
$$$$
