
     RDKit          3D

113110  0  0  0  0  0  0  0  0999 V2000
   -5.3310  -40.5370  -38.0550 N   0  0  0  0  0  0  0  0  0  0  0  0
   -4.9990  -41.7240  -38.8310 C   0  0  2  0  0  0  0  0  0  0  0  0
   -3.9220  -41.4050  -39.8580 C   0  0  0  0  0  0  0  0  0  0  0  0
   -3.8710  -40.2930  -40.3810 O   0  0  0  0  0  0  0  0  0  0  0  0
   -6.2340  -42.2820  -39.5730 C   0  0  2  0  0  0  0  0  0  0  0  0
   -7.4700  -42.2570  -38.6740 C   0  0  0  0  0  0  0  0  0  0  0  0
   -5.9610  -43.6880  -40.1000 C   0  0  0  0  0  0  0  0  0  0  0  0
   -8.7490  -42.6200  -39.3990 C   0  0  0  0  0  0  0  0  0  0  0  0
   -3.0610  -42.3780  -40.1440 N   0  0  0  0  0  0  0  0  0  0  0  0
   -2.1340  -42.2670  -41.2670 C   0  0  2  0  0  0  0  0  0  0  0  0
   -2.0960  -43.5740  -42.0490 C   0  0  0  0  0  0  0  0  0  0  0  0
   -2.2760  -44.6530  -41.4820 O   0  0  0  0  0  0  0  0  0  0  0  0
   -0.7310  -41.8890  -40.7900 C   0  0  0  0  0  0  0  0  0  0  0  0
    0.1760  -41.4700  -41.9320 C   0  0  0  0  0  0  0  0  0  0  0  0
   -0.2920  -41.0600  -42.9940 O   0  0  0  0  0  0  0  0  0  0  0  0
    1.4830  -41.5710  -41.7180 N   0  0  0  0  0  0  0  0  0  0  0  0
   -1.8640  -43.4760  -43.3520 N   0  0  0  0  0  0  0  0  0  0  0  0
   -1.9360  -44.6470  -44.2150 C   0  0  2  0  0  0  0  0  0  0  0  0
   -0.8550  -44.6330  -45.2890 C   0  0  0  0  0  0  0  0  0  0  0  0
   -0.3680  -43.5720  -45.6750 O   0  0  0  0  0  0  0  0  0  0  0  0
   -3.3120  -44.7260  -44.8710 C   0  0  0  0  0  0  0  0  0  0  0  0
   -3.5560  -43.5870  -45.8370 C   0  0  0  0  0  0  0  0  0  0  0  0
   -3.9250  -42.4840  -45.3830 O   0  0  0  0  0  0  0  0  0  0  0  0
   -3.3770  -43.7950  -47.0540 O   0  0  0  0  0  0  0  0  0  0  0  0
   -0.4900  -45.8190  -45.7680 N   0  0  0  0  0  0  0  0  0  0  0  0
    0.4890  -45.9560  -46.8420 C   0  0  2  0  0  0  0  0  0  0  0  0
    0.0860  -47.0780  -47.8000 C   0  0  0  0  0  0  0  0  0  0  0  0
   -0.4570  -48.0990  -47.3800 O   0  0  0  0  0  0  0  0  0  0  0  0
    1.8860  -46.2250  -46.2730 C   0  0  0  0  0  0  0  0  0  0  0  0
    2.4930  -45.0600  -45.5030 C   0  0  0  0  0  0  0  0  0  0  0  0
    3.6400  -44.4130  -46.2600 C   0  0  0  0  0  0  0  0  0  0  0  0
    4.9510  -45.1500  -46.0220 C   0  0  0  0  0  0  0  0  0  0  0  0
    6.1040  -44.4430  -46.6500 N   0  0  0  0  0  0  0  0  0  0  0  0
    0.3500  -46.8800  -49.0870 N   0  0  0  0  0  0  0  0  0  0  0  0
    0.0890  -47.9040  -50.0940 C   0  0  2  0  0  0  0  0  0  0  0  0
    1.0130  -49.1030  -49.8920 C   0  0  0  0  0  0  0  0  0  0  0  0
    2.0670  -48.9740  -49.2670 O   0  0  0  0  0  0  0  0  0  0  0  0
    0.2620  -47.3250  -51.5010 C   0  0  0  0  0  0  0  0  0  0  0  0
   -1.0240  -46.1480  -51.9770 S   0  0  0  0  0  0  0  0  0  0  0  0
    6.1290  -48.3150  -43.8410 N   0  0  0  0  0  0  0  0  0  0  0  0
    5.2790  -48.3160  -42.6600 C   0  0  2  0  0  0  0  0  0  0  0  0
    4.7340  -46.9160  -42.3800 C   0  0  0  0  0  0  0  0  0  0  0  0
    5.4730  -45.9320  -42.4190 O   0  0  0  0  0  0  0  0  0  0  0  0
    6.0640  -48.8430  -41.4570 C   0  0  0  0  0  0  0  0  0  0  0  0
    5.3260  -49.8700  -40.6140 C   0  0  0  0  0  0  0  0  0  0  0  0
    4.8950  -51.0920  -41.4010 C   0  0  0  0  0  0  0  0  0  0  0  0
    4.0440  -51.8540  -40.8950 O   0  0  0  0  0  0  0  0  0  0  0  0
    5.4090  -51.2950  -42.5200 O   0  0  0  0  0  0  0  0  0  0  0  0
    3.4360  -46.8330  -42.1080 N   0  0  0  0  0  0  0  0  0  0  0  0
    2.7900  -45.5580  -41.8130 C   0  0  2  0  0  0  0  0  0  0  0  0
    2.9720  -45.1860  -40.3470 C   0  0  0  0  0  0  0  0  0  0  0  0
    2.8610  -46.0390  -39.4670 O   0  0  0  0  0  0  0  0  0  0  0  0
    1.3140  -45.6210  -42.1600 C   0  0  0  0  0  0  0  0  0  0  0  0
    3.2430  -43.9110  -40.0820 N   0  0  0  0  0  0  0  0  0  0  0  0
    3.5010  -43.4770  -38.7150 C   0  0  2  0  0  0  0  0  0  0  0  0
    2.8060  -42.1710  -38.3420 C   0  0  0  0  0  0  0  0  0  0  0  0
    2.5810  -41.3020  -39.1850 O   0  0  0  0  0  0  0  0  0  0  0  0
    5.0080  -43.3330  -38.4850 C   0  0  0  0  0  0  0  0  0  0  0  0
    5.7540  -44.6300  -38.5350 C   0  0  0  0  0  0  0  0  0  0  0  0
    5.6980  -45.5600  -37.5190 N   0  0  0  0  0  0  0  0  0  0  0  0
    6.5760  -45.1500  -39.4770 C   0  0  0  0  0  0  0  0  0  0  0  0
    6.4500  -46.5990  -37.8350 C   0  0  0  0  0  0  0  0  0  0  0  0
    6.9950  -46.3760  -39.0180 N   0  0  0  0  0  0  0  0  0  0  0  0
   -5.6910  -52.2900  -49.9520 N   0  0  0  0  0  0  0  0  0  0  0  0
   -5.4930  -51.1720  -50.8640 C   0  0  2  0  0  0  0  0  0  0  0  0
   -5.3590  -51.6600  -52.3010 C   0  0  0  0  0  0  0  0  0  0  0  0
   -5.0230  -52.8230  -52.5500 O   0  0  0  0  0  0  0  0  0  0  0  0
   -4.2560  -50.3610  -50.4730 C   0  0  0  0  0  0  0  0  0  0  0  0
   -4.2720  -49.8430  -49.0470 C   0  0  0  0  0  0  0  0  0  0  0  0
   -5.4370  -48.8950  -48.8020 C   0  0  0  0  0  0  0  0  0  0  0  0
   -5.3110  -47.6480  -49.5520 N   0  0  0  0  0  0  0  0  0  0  0  0
   -4.5830  -46.6060  -49.1570 C   0  0  0  0  0  0  0  0  0  0  0  0
   -3.9010  -46.6600  -48.0210 N   0  0  0  0  0  0  0  0  0  0  0  0
   -4.5300  -45.5120  -49.9030 N   0  0  0  0  0  0  0  0  0  0  0  0
   -8.8210  -48.7580  -56.6030 N   0  0  0  0  0  0  0  0  0  0  0  0
  -10.0260  -48.0810  -56.1600 C   0  0  0  0  0  0  0  0  0  0  0  0
   -9.8210  -47.0930  -55.0220 C   0  0  0  0  0  0  0  0  0  0  0  0
  -10.7390  -46.3440  -54.6820 O   0  0  0  0  0  0  0  0  0  0  0  0
   -8.6290  -47.0860  -54.4270 N   0  0  0  0  0  0  0  0  0  0  0  0
   -8.3340  -46.1400  -53.3540 C   0  0  2  0  0  0  0  0  0  0  0  0
   -6.9100  -45.5760  -53.3800 C   0  0  0  0  0  0  0  0  0  0  0  0
   -6.2340  -45.5230  -52.3520 O   0  0  0  0  0  0  0  0  0  0  0  0
   -8.6150  -46.7840  -51.9910 C   0  0  0  0  0  0  0  0  0  0  0  0
   -7.9480  -48.1350  -51.8270 C   0  0  0  0  0  0  0  0  0  0  0  0
   -6.7700  -48.3070  -52.1400 O   0  0  0  0  0  0  0  0  0  0  0  0
   -8.7060  -49.1050  -51.3360 N   0  0  0  0  0  0  0  0  0  0  0  0
   -6.4660  -45.1550  -54.5600 N   0  0  0  0  0  0  0  0  0  0  0  0
   -5.2610  -44.3530  -54.6920 C   0  0  0  0  0  0  0  0  0  0  0  0
   -3.9190  -45.0490  -54.5820 C   0  0  0  0  0  0  0  0  0  0  0  0
   -2.9250  -44.4150  -54.2280 O   0  0  0  0  0  0  0  0  0  0  0  0
   -3.8700  -46.3400  -54.8930 N   0  0  0  0  0  0  0  0  0  0  0  0
   -2.6080  -47.0740  -54.8340 C   0  0  2  0  0  0  0  0  0  0  0  0
   -2.2720  -47.7590  -56.1550 C   0  0  0  0  0  0  0  0  0  0  0  0
   -3.1500  -48.2830  -56.8390 O   0  0  0  0  0  0  0  0  0  0  0  0
   -2.6410  -48.1000  -53.7040 C   0  0  0  0  0  0  0  0  0  0  0  0
   -2.6570  -47.3560  -52.0610 S   0  0  0  0  0  0  0  0  0  0  0  0
  -10.3340  -49.1640  -46.7080 N   0  0  0  0  0  0  0  0  0  0  0  0
   -9.6220  -48.1680  -47.5070 C   0  0  2  0  0  0  0  0  0  0  0  0
   -8.4790  -47.5530  -46.7020 C   0  0  0  0  0  0  0  0  0  0  0  0
   -7.5130  -48.2390  -46.3680 O   0  0  0  0  0  0  0  0  0  0  0  0
  -10.5820  -47.0840  -48.0030 C   0  0  0  0  0  0  0  0  0  0  0  0
   -8.5940  -46.2680  -46.3780 N   0  0  0  0  0  0  0  0  0  0  0  0
   -7.5650  -45.6010  -45.5860 C   0  0  2  0  0  0  0  0  0  0  0  0
   -8.1040  -44.9790  -44.2970 C   0  0  0  0  0  0  0  0  0  0  0  0
   -7.5830  -43.9620  -43.8440 O   0  0  0  0  0  0  0  0  0  0  0  0
   -6.8670  -44.5380  -46.4190 C   0  0  0  0  0  0  0  0  0  0  0  0
   -9.1350  -45.5860  -43.7090 N   0  0  0  0  0  0  0  0  0  0  0  0
   -9.6310  -45.1530  -42.4000 C   0  0  2  0  0  0  0  0  0  0  0  0
   -9.8960  -46.3160  -41.4490 C   0  0  0  0  0  0  0  0  0  0  0  0
   -9.9850  -47.4720  -41.8600 O   0  0  0  0  0  0  0  0  0  0  0  0
  -10.9370  -44.3350  -42.5070 C   0  0  2  0  0  0  0  0  0  0  0  0
  -11.7970  -44.9230  -43.4880 O   0  0  0  0  0  0  0  0  0  0  0  0
  -10.6430  -42.8930  -42.8880 C   0  0  0  0  0  0  0  0  0  0  0  0
  2  1  1  6
  3  2  1  0
  4  3  2  0
  5  2  1  0
  6  5  1  0
  5  7  1  1
  8  6  1  0
  9  3  1  0
 10  9  1  0
 11 10  1  0
 12 11  2  0
 10 13  1  1
 14 13  1  0
 15 14  2  0
 16 14  1  0
 17 11  1  0
 18 17  1  0
 19 18  1  0
 20 19  2  0
 18 21  1  6
 22 21  1  0
 23 22  2  0
 24 22  1  0
 25 19  1  0
 26 25  1  0
 27 26  1  0
 28 27  2  0
 26 29  1  1
 30 29  1  0
 31 30  1  0
 32 31  1  0
 33 32  1  0
 34 27  1  0
 35 34  1  0
 36 35  1  0
 37 36  2  0
 35 38  1  6
 39 38  1  0
 41 40  1  6
 42 41  1  0
 43 42  2  0
 44 41  1  0
 45 44  1  0
 46 45  1  0
 47 46  2  0
 48 46  1  0
 49 42  1  0
 50 49  1  0
 51 50  1  0
 52 51  2  0
 50 53  1  1
 54 51  1  0
 55 54  1  0
 56 55  1  0
 57 56  2  0
 55 58  1  6
 59 58  1  0
 60 59  1  0
 61 59  2  0
 62 60  2  0
 63 61  1  0
 63 62  1  0
 65 64  1  1
 66 65  1  0
 67 66  2  0
 68 65  1  0
 69 68  1  0
 70 69  1  0
 71 70  1  0
 72 71  1  0
 73 72  1  0
 74 72  2  0
 76 75  1  0
 77 76  1  0
 78 77  2  0
 79 77  1  0
 80 79  1  0
 81 80  1  0
 82 81  2  0
 80 83  1  1
 84 83  1  0
 85 84  2  0
 86 84  1  0
 87 81  1  0
 88 87  1  0
 89 88  1  0
 90 89  2  0
 91 89  1  0
 92 91  1  0
 93 92  1  0
 94 93  2  0
 92 95  1  1
 96 95  1  0
 96 39  1  0
 98 97  1  0
 99 98  1  0
100 99  2  0
 98101  1  1
102 99  1  0
103102  1  0
104103  1  0
105104  2  0
103106  1  6
107104  1  0
108107  1  6
109108  1  0
110109  2  0
111108  1  0
112111  1  0
111113  1  6
M  END
$$$$
