
     RDKit          3D

153148  0  0  0  0  0  0  0  0999 V2000
   13.4720  -35.7600   30.8280 N   0  0  0  0  0  0  0  0  0  0  0  0
   14.4540  -36.2780   31.7670 C   0  0  2  0  0  0  0  0  0  0  0  0
   13.7370  -36.7420   33.0250 C   0  0  0  0  0  0  0  0  0  0  0  0
   12.6330  -36.2900   33.3340 O   0  0  0  0  0  0  0  0  0  0  0  0
   15.5130  -35.2270   32.1500 C   0  0  2  0  0  0  0  0  0  0  0  0
   14.9350  -34.2660   33.0450 O   0  0  0  0  0  0  0  0  0  0  0  0
   16.0390  -34.5110   30.9230 C   0  0  0  0  0  0  0  0  0  0  0  0
   14.3790  -37.6530   33.7570 N   0  0  0  0  0  0  0  0  0  0  0  0
   13.8040  -38.0930   35.0210 C   0  0  2  0  0  0  0  0  0  0  0  0
   13.7930  -36.9670   36.0440 C   0  0  0  0  0  0  0  0  0  0  0  0
   12.9050  -36.9220   36.9030 O   0  0  0  0  0  0  0  0  0  0  0  0
   14.5670  -39.2940   35.5720 C   0  0  0  0  0  0  0  0  0  0  0  0
   14.4460  -40.5440   34.7520 C   0  0  0  0  0  0  0  0  0  0  0  0
   15.4510  -41.1950   34.0890 C   0  0  0  0  0  0  0  0  0  0  0  0
   13.2510  -41.2970   34.5050 C   0  0  0  0  0  0  0  0  0  0  0  0
   14.9560  -42.3080   33.4510 N   0  0  0  0  0  0  0  0  0  0  0  0
   13.6090  -42.3940   33.6890 C   0  0  0  0  0  0  0  0  0  0  0  0
   11.9140  -41.1510   34.8920 C   0  0  0  0  0  0  0  0  0  0  0  0
   12.6780  -43.3400   33.2560 C   0  0  0  0  0  0  0  0  0  0  0  0
   10.9880  -42.0970   34.4610 C   0  0  0  0  0  0  0  0  0  0  0  0
   11.3760  -43.1740   33.6500 C   0  0  0  0  0  0  0  0  0  0  0  0
   14.7580  -36.0460   35.9720 N   0  0  0  0  0  0  0  0  0  0  0  0
   14.7600  -34.9130   36.8920 C   0  0  2  0  0  0  0  0  0  0  0  0
   13.6580  -33.9140   36.5710 C   0  0  0  0  0  0  0  0  0  0  0  0
   13.3520  -33.0610   37.4110 O   0  0  0  0  0  0  0  0  0  0  0  0
   16.1160  -34.2080   36.8690 C   0  0  0  0  0  0  0  0  0  0  0  0
   17.2560  -35.1320   37.2230 C   0  0  0  0  0  0  0  0  0  0  0  0
   17.1050  -36.0240   38.0570 O   0  0  0  0  0  0  0  0  0  0  0  0
   18.4060  -34.9290   36.5860 N   0  0  0  0  0  0  0  0  0  0  0  0
   10.8900  -35.2970   38.8530 N   0  0  0  0  0  0  0  0  0  0  0  0
   11.2460  -35.5470   40.2500 C   0  0  2  0  0  0  0  0  0  0  0  0
   12.2530  -34.4890   40.6810 C   0  0  0  0  0  0  0  0  0  0  0  0
   13.4690  -34.7230   40.6170 O   0  0  0  0  0  0  0  0  0  0  0  0
   11.8020  -36.9650   40.4610 C   0  0  2  0  0  0  0  0  0  0  0  0
   10.8450  -38.0170   39.9080 C   0  0  0  0  0  0  0  0  0  0  0  0
   12.0210  -37.2240   41.9330 C   0  0  0  0  0  0  0  0  0  0  0  0
   11.2660  -39.4270   40.2150 C   0  0  0  0  0  0  0  0  0  0  0  0
   12.4910  -32.8720   43.7730 N   0  0  0  0  0  0  0  0  0  0  0  0
   12.8460  -32.9460   45.1720 C   0  0  2  0  0  0  0  0  0  0  0  0
   12.4810  -34.2830   45.6850 C   0  0  0  0  0  0  0  0  0  0  0  0
   12.0590  -35.1140   44.9410 O   0  0  0  0  0  0  0  0  0  0  0  0
   12.1910  -31.8610   45.9820 C   0  0  0  0  0  0  0  0  0  0  0  0
   10.8120  -31.9030   45.8140 O   0  0  0  0  0  0  0  0  0  0  0  0
   12.6630  -34.5050   46.9650 N   0  0  0  0  0  0  0  0  0  0  0  0
   12.4870  -35.8210   47.5180 C   0  0  2  0  0  0  0  0  0  0  0  0
   11.2000  -36.6070   47.4140 C   0  0  0  0  0  0  0  0  0  0  0  0
   11.2520  -37.7350   46.9690 O   0  0  0  0  0  0  0  0  0  0  0  0
   12.7850  -35.7080   49.0050 C   0  0  0  0  0  0  0  0  0  0  0  0
   13.1390  -37.0140   49.6660 C   0  0  0  0  0  0  0  0  0  0  0  0
   12.8140  -37.0040   51.1420 C   0  0  0  0  0  0  0  0  0  0  0  0
   13.9940  -36.5590   51.9730 C   0  0  0  0  0  0  0  0  0  0  0  0
   13.7360  -36.7490   53.4240 N   0  0  0  0  0  0  0  0  0  0  0  0
   12.4130  -44.6370   52.0540 N   0  0  0  0  0  0  0  0  0  0  0  0
   13.0530  -43.4090   52.5080 C   0  0  2  0  0  0  0  0  0  0  0  0
   12.3360  -42.1600   52.0050 C   0  0  0  0  0  0  0  0  0  0  0  0
   12.9650  -41.1040   51.8520 O   0  0  0  0  0  0  0  0  0  0  0  0
   14.5140  -43.3910   52.0680 C   0  0  0  0  0  0  0  0  0  0  0  0
   14.6670  -43.6590   50.5910 C   0  0  0  0  0  0  0  0  0  0  0  0
   13.8510  -44.4310   50.0450 O   0  0  0  0  0  0  0  0  0  0  0  0
   15.5940  -43.0960   49.9760 O   0  0  0  0  0  0  0  0  0  0  0  0
   11.3950  -41.3090   49.1710 N   0  0  0  0  0  0  0  0  0  0  0  0
   11.7370  -40.8960   47.8200 C   0  0  2  0  0  0  0  0  0  0  0  0
   10.8010  -41.5540   46.8110 C   0  0  0  0  0  0  0  0  0  0  0  0
   10.3120  -42.6680   47.0200 O   0  0  0  0  0  0  0  0  0  0  0  0
   13.1910  -41.2430   47.4940 C   0  0  0  0  0  0  0  0  0  0  0  0
   14.1810  -40.2270   47.9770 C   0  0  0  0  0  0  0  0  0  0  0  0
   14.5450  -39.1290   47.2270 N   0  0  0  0  0  0  0  0  0  0  0  0
   14.8880  -40.1460   49.1290 C   0  0  0  0  0  0  0  0  0  0  0  0
   15.4300  -38.4130   47.8980 C   0  0  0  0  0  0  0  0  0  0  0  0
   15.6560  -39.0090   49.0550 N   0  0  0  0  0  0  0  0  0  0  0  0
   10.5510  -40.8410   45.7100 N   0  0  0  0  0  0  0  0  0  0  0  0
    9.6910  -41.3510   44.6480 C   0  0  2  0  0  0  0  0  0  0  0  0
   10.3800  -42.5120   43.9430 C   0  0  0  0  0  0  0  0  0  0  0  0
   11.5720  -42.4410   43.6080 O   0  0  0  0  0  0  0  0  0  0  0  0
    9.3490  -40.2290   43.6560 C   0  0  0  0  0  0  0  0  0  0  0  0
    8.5210  -40.7700   42.5020 C   0  0  0  0  0  0  0  0  0  0  0  0
    8.6290  -39.0880   44.3600 C   0  0  0  0  0  0  0  0  0  0  0  0
    9.6320  -43.5920   43.7070 N   0  0  0  0  0  0  0  0  0  0  0  0
   10.1330  -44.7390   42.9530 C   0  0  2  0  0  0  0  0  0  0  0  0
    9.2290  -44.9660   41.7490 C   0  0  0  0  0  0  0  0  0  0  0  0
    8.0500  -45.2970   41.9010 O   0  0  0  0  0  0  0  0  0  0  0  0
   10.2040  -45.9970   43.8220 C   0  0  0  0  0  0  0  0  0  0  0  0
   11.1160  -45.9440   45.0440 C   0  0  0  0  0  0  0  0  0  0  0  0
   11.1520  -47.3040   45.7120 C   0  0  0  0  0  0  0  0  0  0  0  0
   12.5130  -45.4850   44.6600 C   0  0  0  0  0  0  0  0  0  0  0  0
    9.7840  -44.7810   40.5600 N   0  0  0  0  0  0  0  0  0  0  0  0
    9.1130  -45.0970   39.3040 C   0  0  2  0  0  0  0  0  0  0  0  0
    9.7080  -46.4040   38.7820 C   0  0  0  0  0  0  0  0  0  0  0  0
   10.9310  -46.4760   38.5980 O   0  0  0  0  0  0  0  0  0  0  0  0
    9.2740  -43.9680   38.2750 C   0  0  2  0  0  0  0  0  0  0  0  0
    8.7990  -42.6380   38.8540 C   0  0  0  0  0  0  0  0  0  0  0  0
    8.5230  -44.3000   37.0040 C   0  0  0  0  0  0  0  0  0  0  0  0
    8.9800  -41.4640   37.9240 C   0  0  0  0  0  0  0  0  0  0  0  0
   12.0610  -46.1920   35.9220 N   0  0  0  0  0  0  0  0  0  0  0  0
   13.2250  -45.3750   36.2460 C   0  0  2  0  0  0  0  0  0  0  0  0
   14.2380  -46.1550   37.0710 C   0  0  0  0  0  0  0  0  0  0  0  0
   15.4490  -46.0330   36.8570 O   0  0  0  0  0  0  0  0  0  0  0  0
   12.7870  -44.1150   36.9920 C   0  0  0  0  0  0  0  0  0  0  0  0
   13.9240  -43.2220   37.4210 C   0  0  0  0  0  0  0  0  0  0  0  0
   13.3300  -41.8100   38.3590 S   0  0  0  0  0  0  0  0  0  0  0  0
   14.8700  -40.9720   38.7000 C   0  0  0  0  0  0  0  0  0  0  0  0
   13.7650  -46.9560   38.0250 N   0  0  0  0  0  0  0  0  0  0  0  0
   14.6780  -47.7600   38.8280 C   0  0  2  0  0  0  0  0  0  0  0  0
   15.4200  -48.7650   37.9550 C   0  0  0  0  0  0  0  0  0  0  0  0
   16.6460  -48.9050   38.0470 O   0  0  0  0  0  0  0  0  0  0  0  0
   13.9050  -48.4600   39.9450 C   0  0  0  0  0  0  0  0  0  0  0  0
   13.2220  -47.4970   40.9050 C   0  0  0  0  0  0  0  0  0  0  0  0
   14.1650  -46.4240   41.4360 C   0  0  0  0  0  0  0  0  0  0  0  0
   15.2240  -46.7280   41.9890 O   0  0  0  0  0  0  0  0  0  0  0  0
   13.7820  -45.1580   41.2630 N   0  0  0  0  0  0  0  0  0  0  0  0
   17.9340  -46.9450   35.7160 N   0  0  0  0  0  0  0  0  0  0  0  0
   18.9910  -46.2190   36.4070 C   0  0  2  0  0  0  0  0  0  0  0  0
   19.6700  -47.0470   37.4890 C   0  0  0  0  0  0  0  0  0  0  0  0
   20.3740  -46.4880   38.3370 O   0  0  0  0  0  0  0  0  0  0  0  0
   18.4330  -44.9320   37.0100 C   0  0  0  0  0  0  0  0  0  0  0  0
   17.9330  -43.9180   35.9860 C   0  0  0  0  0  0  0  0  0  0  0  0
   17.5120  -42.6430   36.6810 C   0  0  0  0  0  0  0  0  0  0  0  0
   19.0080  -43.6410   34.9610 C   0  0  0  0  0  0  0  0  0  0  0  0
   23.6800  -46.6650   37.3980 N   0  0  0  0  0  0  0  0  0  0  0  0
   24.1540  -45.3340   37.7690 C   0  0  2  0  0  0  0  0  0  0  0  0
   23.9190  -45.0520   39.2470 C   0  0  0  0  0  0  0  0  0  0  0  0
   24.8110  -44.5450   39.9380 O   0  0  0  0  0  0  0  0  0  0  0  0
   23.4750  -44.2770   36.9060 C   0  0  0  0  0  0  0  0  0  0  0  0
   23.9510  -44.2820   35.4700 C   0  0  0  0  0  0  0  0  0  0  0  0
   22.8330  -44.0200   34.4870 C   0  0  0  0  0  0  0  0  0  0  0  0
   22.1460  -43.0020   34.5670 O   0  0  0  0  0  0  0  0  0  0  0  0
   22.6350  -44.9480   33.5570 N   0  0  0  0  0  0  0  0  0  0  0  0
   22.7240  -45.3730   39.7480 N   0  0  0  0  0  0  0  0  0  0  0  0
   22.4420  -45.1930   41.1680 C   0  0  2  0  0  0  0  0  0  0  0  0
   23.3920  -46.0260   42.0180 C   0  0  0  0  0  0  0  0  0  0  0  0
   23.8650  -45.5730   43.0680 O   0  0  0  0  0  0  0  0  0  0  0  0
   20.9880  -45.5660   41.4560 C   0  0  0  0  0  0  0  0  0  0  0  0
   20.5010  -45.1320   42.8020 C   0  0  0  0  0  0  0  0  0  0  0  0
   19.2200  -45.3810   43.2410 N   0  0  0  0  0  0  0  0  0  0  0  0
   21.1190  -44.4630   43.8020 C   0  0  0  0  0  0  0  0  0  0  0  0
   19.0700  -44.8870   44.4570 C   0  0  0  0  0  0  0  0  0  0  0  0
   20.2090  -44.3250   44.8210 N   0  0  0  0  0  0  0  0  0  0  0  0
   23.6850  -47.2500   41.5780 N   0  0  0  0  0  0  0  0  0  0  0  0
   24.6270  -48.0900   42.3070 C   0  0  2  0  0  0  0  0  0  0  0  0
   26.0340  -47.5120   42.2510 C   0  0  0  0  0  0  0  0  0  0  0  0
   26.7620  -47.5420   43.2520 O   0  0  0  0  0  0  0  0  0  0  0  0
   24.6070  -49.5030   41.7370 C   0  0  0  0  0  0  0  0  0  0  0  0
   24.9760  -50.5650   42.7310 C   0  0  0  0  0  0  0  0  0  0  0  0
   23.6600  -51.7760   42.8490 S   0  0  0  0  0  0  0  0  0  0  0  0
   23.5410  -52.3120   41.1440 C   0  0  0  0  0  0  0  0  0  0  0  0
   26.8750  -44.4770   42.1720 N   0  0  0  0  0  0  0  0  0  0  0  0
   26.9010  -43.3350   43.0740 C   0  0  2  0  0  0  0  0  0  0  0  0
   27.1540  -43.7240   44.5230 C   0  0  0  0  0  0  0  0  0  0  0  0
   27.3220  -42.8320   45.3590 O   0  0  0  0  0  0  0  0  0  0  0  0
   25.5750  -42.5810   42.9690 C   0  0  0  0  0  0  0  0  0  0  0  0
   25.6760  -41.0670   42.8510 C   0  0  0  0  0  0  0  0  0  0  0  0
   26.5340  -40.6930   41.6480 C   0  0  0  0  0  0  0  0  0  0  0  0
   24.2840  -40.4750   42.7410 C   0  0  0  0  0  0  0  0  0  0  0  0
  2  1  1  6
  3  2  1  0
  4  3  2  0
  5  2  1  0
  6  5  1  0
  5  7  1  6
  8  3  1  0
  9  8  1  0
 10  9  1  0
 11 10  2  0
  9 12  1  1
 13 12  1  0
 14 13  2  0
 15 13  1  0
 16 14  1  0
 17 16  1  0
 17 15  2  0
 18 15  1  0
 19 17  1  0
 20 18  2  0
 21 20  1  0
 21 19  2  0
 22 10  1  0
 23 22  1  0
 24 23  1  0
 25 24  2  0
 23 26  1  6
 27 26  1  0
 28 27  2  0
 29 27  1  0
 31 30  1  6
 32 31  1  0
 33 32  2  0
 34 31  1  0
 35 34  1  0
 34 36  1  1
 37 35  1  0
 39 38  1  6
 40 39  1  0
 41 40  2  0
 42 39  1  0
 43 42  1  0
 44 40  1  0
 45 44  1  0
 46 45  1  0
 47 46  2  0
 45 48  1  1
 49 48  1  0
 50 49  1  0
 51 50  1  0
 52 51  1  0
 54 53  1  6
 55 54  1  0
 56 55  2  0
 57 54  1  0
 58 57  1  0
 59 58  2  0
 60 58  1  0
 62 61  1  1
 63 62  1  0
 64 63  2  0
 65 62  1  0
 66 65  1  0
 67 66  1  0
 68 66  2  0
 69 67  2  0
 70 69  1  0
 70 68  1  0
 71 63  1  0
 72 71  1  1
 73 72  1  0
 74 73  2  0
 75 72  1  0
 76 75  1  0
 77 75  1  0
 78 73  1  0
 79 78  1  0
 80 79  1  0
 81 80  2  0
 79 82  1  1
 83 82  1  0
 84 83  1  0
 85 83  1  0
 86 80  1  0
 87 86  1  1
 88 87  1  0
 89 88  2  0
 90 87  1  0
 91 90  1  0
 90 92  1  6
 93 91  1  0
 95 94  1  1
 96 95  1  0
 97 96  2  0
 98 95  1  0
 99 98  1  0
100 99  1  0
101100  1  0
102 96  1  0
103102  1  0
104103  1  0
105104  2  0
103106  1  1
107106  1  0
108107  1  0
109108  2  0
110108  1  0
112111  1  1
113112  1  0
114113  2  0
115112  1  0
116115  1  0
117116  1  0
118116  1  0
120119  1  6
121120  1  0
122121  2  0
123120  1  0
124123  1  0
125124  1  0
126125  2  0
127125  1  0
128121  1  0
129128  1  0
130129  1  0
131130  2  0
129132  1  6
133132  1  0
134133  1  0
135133  2  0
136134  2  0
137136  1  0
137135  1  0
138130  1  0
139138  1  0
140139  1  0
141140  2  0
139142  1  6
143142  1  0
144143  1  0
145144  1  0
147146  1  6
148147  1  0
149148  2  0
150147  1  0
151150  1  0
152151  1  0
153151  1  0
M  END
$$$$
