
     RDKit          3D

102103  0  0  0  0  0  0  0  0999 V2000
   13.6040  -21.1280   11.7410 N   0  0  0  0  0  0  0  0  0  0  0  0
   12.9740  -22.3550   12.2880 C   0  0  2  0  0  0  0  0  0  0  0  0
   11.5490  -21.9970   12.7230 C   0  0  0  0  0  0  0  0  0  0  0  0
   11.2200  -20.8050   12.8460 O   0  0  0  0  0  0  0  0  0  0  0  0
   13.8240  -22.9640   13.4070 C   0  0  0  0  0  0  0  0  0  0  0  0
   14.0370  -22.0400   14.5740 C   0  0  0  0  0  0  0  0  0  0  0  0
   13.1970  -22.0820   15.6720 C   0  0  0  0  0  0  0  0  0  0  0  0
   15.0370  -21.0820   14.5410 C   0  0  0  0  0  0  0  0  0  0  0  0
   13.3690  -21.2030   16.7290 C   0  0  0  0  0  0  0  0  0  0  0  0
   15.1960  -20.1890   15.5910 C   0  0  0  0  0  0  0  0  0  0  0  0
   14.3730  -20.2630   16.6930 C   0  0  0  0  0  0  0  0  0  0  0  0
    4.3420  -30.5830   13.3560 N   0  0  0  0  0  0  0  0  0  0  0  0
    4.9000  -29.4660   14.1540 C   0  0  2  0  0  0  0  0  0  0  0  0
    5.5640  -29.9910   15.4410 C   0  0  0  0  0  0  0  0  0  0  0  0
    6.3160  -29.2160   16.0410 O   0  0  0  0  0  0  0  0  0  0  0  0
    3.8240  -28.4460   14.4450 C   0  0  0  0  0  0  0  0  0  0  0  0
    5.3260  -31.2400   15.8530 N   0  0  0  0  0  0  0  0  0  0  0  0
    5.9910  -31.8140   17.0510 C   0  0  2  0  0  0  0  0  0  0  0  0
    7.4750  -31.9790   16.7490 C   0  0  0  0  0  0  0  0  0  0  0  0
    8.2710  -31.7780   17.6800 O   0  0  0  0  0  0  0  0  0  0  0  0
    5.3280  -33.1020   17.5350 C   0  0  2  0  0  0  0  0  0  0  0  0
    4.2830  -32.6280   18.3810 O   0  0  0  0  0  0  0  0  0  0  0  0
    6.2470  -34.0320   18.2960 C   0  0  0  0  0  0  0  0  0  0  0  0
    7.8330  -32.3200   15.5120 N   0  0  0  0  0  0  0  0  0  0  0  0
    9.2260  -32.2100   15.0050 C   0  0  2  0  0  0  0  0  0  0  0  0
    9.2640  -30.9980   14.0740 C   0  0  0  0  0  0  0  0  0  0  0  0
    8.2300  -30.3340   13.9530 O   0  0  0  0  0  0  0  0  0  0  0  0
    9.6820  -33.5240   14.3640 C   0  0  0  0  0  0  0  0  0  0  0  0
    9.0940  -33.7360   13.0160 C   0  0  0  0  0  0  0  0  0  0  0  0
    7.7580  -34.0330   12.8460 N   0  0  0  0  0  0  0  0  0  0  0  0
    9.6350  -33.6490   11.7830 C   0  0  0  0  0  0  0  0  0  0  0  0
    7.5000  -34.1410   11.5590 C   0  0  0  0  0  0  0  0  0  0  0  0
    8.6360  -33.9030   10.8840 N   0  0  0  0  0  0  0  0  0  0  0  0
   10.4150  -30.6750   13.4880 N   0  0  0  0  0  0  0  0  0  0  0  0
   10.6060  -29.4940   12.6100 C   0  0  2  0  0  0  0  0  0  0  0  0
   10.3990  -28.1930   13.3930 C   0  0  0  0  0  0  0  0  0  0  0  0
   11.1610  -27.2490   13.1360 O   0  0  0  0  0  0  0  0  0  0  0  0
    9.6840  -29.5510   11.4180 C   0  0  0  0  0  0  0  0  0  0  0  0
    9.4060  -28.1130   14.2820 N   0  0  0  0  0  0  0  0  0  0  0  0
    9.2170  -26.9410   15.1790 C   0  0  2  0  0  0  0  0  0  0  0  0
    9.8600  -27.1680   16.5560 C   0  0  0  0  0  0  0  0  0  0  0  0
   10.1040  -28.3270   16.9300 O   0  0  0  0  0  0  0  0  0  0  0  0
    7.7450  -26.5940   15.3530 C   0  0  0  0  0  0  0  0  0  0  0  0
    6.9360  -26.0670   13.8220 S   0  0  0  0  0  0  0  0  0  0  0  0
   10.1520  -26.0740   17.2640 N   0  0  0  0  0  0  0  0  0  0  0  0
   10.4760  -26.0580   18.7210 C   0  0  2  0  0  0  0  0  0  0  0  0
    9.1940  -25.6740   19.4370 C   0  0  0  0  0  0  0  0  0  0  0  0
    8.1660  -25.5300   18.7850 O   0  0  0  0  0  0  0  0  0  0  0  0
   11.6000  -25.0660   19.0200 C   0  0  0  0  0  0  0  0  0  0  0  0
   12.9110  -25.5640   18.4460 C   0  0  0  0  0  0  0  0  0  0  0  0
   11.2450  -23.6830   18.5020 C   0  0  0  0  0  0  0  0  0  0  0  0
    9.1530  -25.6080   20.7810 N   0  0  0  0  0  0  0  0  0  0  0  0
    7.9820  -25.0690   21.4680 C   0  0  2  0  0  0  0  0  0  0  0  0
    7.5930  -23.6740   20.9630 C   0  0  0  0  0  0  0  0  0  0  0  0
    7.3180  -23.5380   19.7970 O   0  0  0  0  0  0  0  0  0  0  0  0
    8.4080  -25.1540   22.9310 C   0  0  0  0  0  0  0  0  0  0  0  0
    9.2030  -26.4300   22.9340 C   0  0  0  0  0  0  0  0  0  0  0  0
   10.0700  -26.2830   21.7010 C   0  0  0  0  0  0  0  0  0  0  0  0
   13.9560  -16.2910   13.7510 N   0  0  0  0  0  0  0  0  0  0  0  0
   15.3230  -16.0680   13.2160 C   0  0  2  0  0  0  0  0  0  0  0  0
   16.3490  -16.6530   14.1720 C   0  0  0  0  0  0  0  0  0  0  0  0
   16.1960  -16.5280   15.3800 O   0  0  0  0  0  0  0  0  0  0  0  0
   15.6200  -14.5850   13.0050 C   0  0  2  0  0  0  0  0  0  0  0  0
   15.1120  -13.8580   14.1210 O   0  0  0  0  0  0  0  0  0  0  0  0
   15.0040  -14.0690   11.7280 C   0  0  0  0  0  0  0  0  0  0  0  0
   17.4150  -17.3030   13.6570 N   0  0  0  0  0  0  0  0  0  0  0  0
   18.5130  -17.7570   14.4970 C   0  0  2  0  0  0  0  0  0  0  0  0
   19.3610  -16.5720   14.9670 C   0  0  0  0  0  0  0  0  0  0  0  0
   19.3450  -15.5270   14.3140 O   0  0  0  0  0  0  0  0  0  0  0  0
   19.3270  -18.6760   13.5790 C   0  0  0  0  0  0  0  0  0  0  0  0
   19.0460  -18.1580   12.1970 C   0  0  0  0  0  0  0  0  0  0  0  0
   17.6160  -17.6620   12.2460 C   0  0  0  0  0  0  0  0  0  0  0  0
   20.0730  -16.7730   16.0770 N   0  0  0  0  0  0  0  0  0  0  0  0
   21.0480  -15.8190   16.6320 C   0  0  2  0  0  0  0  0  0  0  0  0
   21.8670  -15.2560   15.4770 C   0  0  0  0  0  0  0  0  0  0  0  0
   22.3070  -16.0520   14.6250 O   0  0  0  0  0  0  0  0  0  0  0  0
   21.9270  -16.5070   17.6330 C   0  0  0  0  0  0  0  0  0  0  0  0
   22.0450  -13.9360   15.4730 N   0  0  0  0  0  0  0  0  0  0  0  0
   22.7480  -13.1850   14.4180 C   0  0  0  0  0  0  0  0  0  0  0  0
   21.7720  -12.5290   13.4610 C   0  0  0  0  0  0  0  0  0  0  0  0
   22.2410  -11.8840   12.5080 O   0  0  0  0  0  0  0  0  0  0  0  0
   20.4630  -12.6960   13.6850 N   0  0  0  0  0  0  0  0  0  0  0  0
   19.3900  -12.1520   12.8090 C   0  0  2  0  0  0  0  0  0  0  0  0
   18.1600  -11.7920   13.6380 C   0  0  0  0  0  0  0  0  0  0  0  0
   17.9840  -12.3720   14.7210 O   0  0  0  0  0  0  0  0  0  0  0  0
   18.9660  -13.1670   11.7500 C   0  0  0  0  0  0  0  0  0  0  0  0
   20.0520  -13.6020   10.8020 C   0  0  0  0  0  0  0  0  0  0  0  0
   20.9540  -14.5930   11.1550 C   0  0  0  0  0  0  0  0  0  0  0  0
   20.1570  -13.0510    9.5360 C   0  0  0  0  0  0  0  0  0  0  0  0
   21.9430  -15.0190   10.2840 C   0  0  0  0  0  0  0  0  0  0  0  0
   21.1430  -13.4650    8.6530 C   0  0  0  0  0  0  0  0  0  0  0  0
   22.0330  -14.4570    9.0270 C   0  0  0  0  0  0  0  0  0  0  0  0
   23.0020  -14.8830    8.1700 O   0  0  0  0  0  0  0  0  0  0  0  0
   12.0340  -11.5720   17.2970 N   0  0  0  0  0  0  0  0  0  0  0  0
   12.9010  -12.7290   16.9660 C   0  0  2  0  0  0  0  0  0  0  0  0
   12.0080  -13.8710   16.4670 C   0  0  0  0  0  0  0  0  0  0  0  0
   12.5450  -14.9390   16.1300 O   0  0  0  0  0  0  0  0  0  0  0  0
   13.8210  -13.0860   18.1450 C   0  0  0  0  0  0  0  0  0  0  0  0
   13.1910  -13.8740   19.2930 C   0  0  0  0  0  0  0  0  0  0  0  0
   14.2250  -14.7540   19.9520 C   0  0  0  0  0  0  0  0  0  0  0  0
   14.7350  -14.4540   21.0320 O   0  0  0  0  0  0  0  0  0  0  0  0
   14.5780  -15.8270   19.2610 N   0  0  0  0  0  0  0  0  0  0  0  0
  2  1  1  1
  3  2  1  0
  4  3  2  0
  5  2  1  0
  6  5  1  0
  7  6  2  0
  8  6  1  0
  9  7  1  0
 10  8  2  0
 11 10  1  0
 11  9  2  0
 13 12  1  0
 14 13  1  0
 15 14  2  0
 13 16  1  1
 17 14  1  0
 18 17  1  6
 19 18  1  0
 20 19  2  0
 21 18  1  0
 22 21  1  0
 21 23  1  1
 24 19  1  0
 25 24  1  0
 26 25  1  0
 27 26  2  0
 25 28  1  6
 29 28  1  0
 30 29  1  0
 31 29  2  0
 32 30  2  0
 33 32  1  0
 33 31  1  0
 34 26  1  0
 35 34  1  0
 36 35  1  0
 37 36  2  0
 35 38  1  6
 39 36  1  0
 40 39  1  0
 41 40  1  0
 42 41  2  0
 40 43  1  1
 44 43  1  0
 45 41  1  0
 46 45  1  6
 47 46  1  0
 48 47  2  0
 49 46  1  0
 50 49  1  0
 51 49  1  0
 52 47  1  0
 53 52  1  0
 53 54  1  6
 55 54  2  0
 56 53  1  0
 57 56  1  0
 58 52  1  0
 58 57  1  0
 60 59  1  1
 61 60  1  0
 62 61  2  0
 63 60  1  0
 64 63  1  0
 63 65  1  6
 66 61  1  0
 67 66  1  0
 67 68  1  6
 69 68  2  0
 70 67  1  0
 71 70  1  0
 72 71  1  0
 72 66  1  0
 73 68  1  0
 74 73  1  0
 75 74  1  0
 76 75  2  0
 74 77  1  1
 78 75  1  0
 79 78  1  0
 80 79  1  0
 81 80  2  0
 82 80  1  0
 83 82  1  0
 84 83  1  0
 85 84  2  0
 83 86  1  6
 87 86  1  0
 88 87  2  0
 89 87  1  0
 90 88  1  0
 91 89  2  0
 92 91  1  0
 92 90  2  0
 93 92  1  0
 95 94  1  1
 96 95  1  0
 97 96  2  0
 98 95  1  0
 99 98  1  0
100 99  1  0
101100  2  0
102100  1  0
M  END
$$$$
