
     RDKit          3D

 84 82  0  0  0  0  0  0  0  0999 V2000
  191.7800  187.5800  202.0380 N   0  0  0  0  0  0  0  0  0  0  0  0
  192.1900  186.5250  202.9650 C   0  0  2  0  0  0  0  0  0  0  0  0
  191.4840  185.2160  202.6530 C   0  0  0  0  0  0  0  0  0  0  0  0
  190.2570  185.1770  202.5260 O   0  0  0  0  0  0  0  0  0  0  0  0
  191.8790  186.9410  204.4000 C   0  0  0  0  0  0  0  0  0  0  0  0
  192.3030  185.8960  205.4090 C   0  0  0  0  0  0  0  0  0  0  0  0
  193.5190  185.7750  205.6650 O   0  0  0  0  0  0  0  0  0  0  0  0
  191.4210  185.1870  205.9390 O   0  0  0  0  0  0  0  0  0  0  0  0
  192.2730  184.1410  202.5810 N   0  0  0  0  0  0  0  0  0  0  0  0
  192.0860  183.0900  201.5850 C   0  0  2  0  0  0  0  0  0  0  0  0
  190.6630  182.5750  201.5040 C   0  0  0  0  0  0  0  0  0  0  0  0
  190.1890  181.8740  202.4020 O   0  0  0  0  0  0  0  0  0  0  0  0
  193.0090  181.9150  201.8870 C   0  0  0  0  0  0  0  0  0  0  0  0
  192.6300  181.2860  203.0980 O   0  0  0  0  0  0  0  0  0  0  0  0
  187.0160  179.3640  197.6690 N   0  0  0  0  0  0  0  0  0  0  0  0
  185.9100  178.5560  198.1700 C   0  0  2  0  0  0  0  0  0  0  0  0
  185.5210  177.4990  197.1430 C   0  0  0  0  0  0  0  0  0  0  0  0
  185.0980  176.3970  197.5110 O   0  0  0  0  0  0  0  0  0  0  0  0
  184.7250  179.4700  198.5150 C   0  0  0  0  0  0  0  0  0  0  0  0
  183.7050  179.0260  199.9790 S   0  0  0  0  0  0  0  0  0  0  0  0
  179.5430  192.7400  199.7160 N   0  0  0  0  0  0  0  0  0  0  0  0
  178.7830  191.7540  200.4960 C   0  0  2  0  0  0  0  0  0  0  0  0
  179.6600  190.8680  201.3660 C   0  0  0  0  0  0  0  0  0  0  0  0
  179.5220  190.8460  202.5970 O   0  0  0  0  0  0  0  0  0  0  0  0
  178.0690  190.9400  199.4120 C   0  0  0  0  0  0  0  0  0  0  0  0
  177.8290  191.8980  198.3580 C   0  0  0  0  0  0  0  0  0  0  0  0
  178.9690  192.8710  198.3640 C   0  0  0  0  0  0  0  0  0  0  0  0
  180.6070  190.1740  200.7260 N   0  0  0  0  0  0  0  0  0  0  0  0
  181.3100  189.0610  201.3550 C   0  0  2  0  0  0  0  0  0  0  0  0
  182.0230  189.4620  202.6310 C   0  0  0  0  0  0  0  0  0  0  0  0
  182.2900  188.5990  203.4730 O   0  0  0  0  0  0  0  0  0  0  0  0
  182.3190  188.4640  200.3860 C   0  0  0  0  0  0  0  0  0  0  0  0
  183.0120  187.3880  200.9830 O   0  0  0  0  0  0  0  0  0  0  0  0
  182.3420  190.7360  202.7850 N   0  0  0  0  0  0  0  0  0  0  0  0
  182.7130  191.3020  204.0730 C   0  0  2  0  0  0  0  0  0  0  0  0
  181.5090  192.0540  204.6080 C   0  0  0  0  0  0  0  0  0  0  0  0
  180.8190  192.7600  203.8660 O   0  0  0  0  0  0  0  0  0  0  0  0
  183.9450  192.2230  203.9780 C   0  0  2  0  0  0  0  0  0  0  0  0
  184.4440  192.5590  205.3910 C   0  0  0  0  0  0  0  0  0  0  0  0
  183.6210  193.5040  203.1920 C   0  0  0  0  0  0  0  0  0  0  0  0
  185.8220  193.1840  205.4380 C   0  0  0  0  0  0  0  0  0  0  0  0
  181.2380  191.8670  205.8930 N   0  0  0  0  0  0  0  0  0  0  0  0
  180.2210  192.6050  206.6290 C   0  0  2  0  0  0  0  0  0  0  0  0
  178.7780  192.2120  206.3170 C   0  0  0  0  0  0  0  0  0  0  0  0
  177.8740  192.7470  206.9690 O   0  0  0  0  0  0  0  0  0  0  0  0
  180.3820  194.1100  206.3930 C   0  0  0  0  0  0  0  0  0  0  0  0
  178.5100  191.3300  205.3370 N   0  0  0  0  0  0  0  0  0  0  0  0
  177.1240  190.9300  205.0920 C   0  0  2  0  0  0  0  0  0  0  0  0
  176.8950  189.4580  204.7730 C   0  0  0  0  0  0  0  0  0  0  0  0
  175.7820  188.9830  205.0200 O   0  0  0  0  0  0  0  0  0  0  0  0
  176.5440  191.7800  203.9550 C   0  0  0  0  0  0  0  0  0  0  0  0
  176.3540  193.2410  204.3340 C   0  0  0  0  0  0  0  0  0  0  0  0
  175.8060  194.0910  203.2000 C   0  0  0  0  0  0  0  0  0  0  0  0
  174.4370  193.7350  202.8280 N   0  0  0  0  0  0  0  0  0  0  0  0
  174.0720  193.0790  201.7280 C   0  0  0  0  0  0  0  0  0  0  0  0
  172.7880  192.8390  201.5250 N   0  0  0  0  0  0  0  0  0  0  0  0
  174.9560  192.6460  200.8370 N   0  0  0  0  0  0  0  0  0  0  0  0
  177.8740  188.7080  204.2690 N   0  0  0  0  0  0  0  0  0  0  0  0
  177.6060  187.4380  203.5890 C   0  0  2  0  0  0  0  0  0  0  0  0
  178.6420  186.3940  204.0110 C   0  0  0  0  0  0  0  0  0  0  0  0
  179.4430  186.6110  204.9250 O   0  0  0  0  0  0  0  0  0  0  0  0
  177.5570  187.6670  202.0690 C   0  0  0  0  0  0  0  0  0  0  0  0
  176.1890  187.9740  201.4570 C   0  0  0  0  0  0  0  0  0  0  0  0
  175.7100  189.3820  201.7460 C   0  0  0  0  0  0  0  0  0  0  0  0
  176.2220  187.7040  199.9500 C   0  0  0  0  0  0  0  0  0  0  0  0
  178.5970  185.2410  203.3430 N   0  0  0  0  0  0  0  0  0  0  0  0
  179.3430  184.0410  203.6890 C   0  0  0  0  0  0  0  0  0  0  0  0
  180.4260  183.7270  202.6660 C   0  0  0  0  0  0  0  0  0  0  0  0
  180.3040  184.0750  201.4960 O   0  0  0  0  0  0  0  0  0  0  0  0
  181.4890  183.0560  203.1240 N   0  0  0  0  0  0  0  0  0  0  0  0
  182.3690  182.3370  202.2100 C   0  0  2  0  0  0  0  0  0  0  0  0
  181.5370  181.4150  201.3580 C   0  0  0  0  0  0  0  0  0  0  0  0
  181.7040  181.3480  200.1420 O   0  0  0  0  0  0  0  0  0  0  0  0
  183.4030  181.5230  202.9950 C   0  0  0  0  0  0  0  0  0  0  0  0
  184.7520  180.6200  202.0810 S   0  0  0  0  0  0  0  0  0  0  0  0
  180.5880  180.7410  201.9960 N   0  0  0  0  0  0  0  0  0  0  0  0
  179.7250  179.7900  201.3200 C   0  0  2  0  0  0  0  0  0  0  0  0
  178.9150  180.4800  200.2330 C   0  0  0  0  0  0  0  0  0  0  0  0
  178.9370  180.0710  199.0700 O   0  0  0  0  0  0  0  0  0  0  0  0
  178.8160  179.1330  202.3530 C   0  0  0  0  0  0  0  0  0  0  0  0
  179.5180  178.2090  203.3540 C   0  0  0  0  0  0  0  0  0  0  0  0
  180.3030  178.9210  204.4380 C   0  0  0  0  0  0  0  0  0  0  0  0
  180.2870  180.1660  204.4580 O   0  0  0  0  0  0  0  0  0  0  0  0
  180.9470  178.2400  205.2610 O   0  0  0  0  0  0  0  0  0  0  0  0
  2  1  1  6
  3  2  1  0
  4  3  2  0
  5  2  1  0
  6  5  1  0
  7  6  2  0
  8  6  1  0
  9  3  1  0
 10  9  1  0
 11 10  1  0
 12 11  2  0
 10 13  1  1
 14 13  1  0
 16 15  1  6
 17 16  1  0
 18 17  2  0
 19 16  1  0
 20 19  1  0
 22 21  1  0
 22 23  1  6
 24 23  2  0
 25 22  1  0
 26 25  1  0
 27 26  1  0
 27 21  1  0
 28 23  1  0
 29 28  1  0
 30 29  1  0
 31 30  2  0
 29 32  1  6
 33 32  1  0
 34 30  1  0
 35 34  1  6
 36 35  1  0
 37 36  2  0
 38 35  1  0
 39 38  1  0
 38 40  1  1
 41 39  1  0
 42 36  1  0
 43 42  1  0
 44 43  1  0
 45 44  2  0
 43 46  1  6
 47 44  1  0
 48 47  1  0
 49 48  1  0
 50 49  2  0
 48 51  1  6
 52 51  1  0
 53 52  1  0
 54 53  1  0
 55 54  1  0
 56 55  1  0
 57 55  2  0
 58 49  1  0
 59 58  1  0
 60 59  1  0
 61 60  2  0
 59 62  1  6
 63 62  1  0
 64 63  1  0
 65 63  1  0
 66 60  1  0
 67 66  1  0
 68 67  1  0
 69 68  2  0
 70 68  1  0
 71 70  1  0
 72 71  1  0
 73 72  2  0
 71 74  1  1
 75 74  1  0
 76 72  1  0
 77 76  1  0
 78 77  1  0
 79 78  2  0
 77 80  1  1
 81 80  1  0
 82 81  1  0
 83 82  2  0
 84 82  1  0
M  END
$$$$
