
     RDKit          3D

129125  0  0  0  0  0  0  0  0999 V2000
  174.9530  -36.7130   54.2870 N   0  0  0  0  0  0  0  0  0  0  0  0
  174.6510  -36.4990   55.6970 C   0  0  2  0  0  0  0  0  0  0  0  0
  173.3750  -37.2280   56.0960 C   0  0  0  0  0  0  0  0  0  0  0  0
  173.2780  -37.7690   57.2040 O   0  0  0  0  0  0  0  0  0  0  0  0
  174.5290  -35.0020   55.9790 C   0  0  0  0  0  0  0  0  0  0  0  0
  173.9790  -34.6650   57.3530 C   0  0  0  0  0  0  0  0  0  0  0  0
  175.0250  -34.8580   58.4330 C   0  0  0  0  0  0  0  0  0  0  0  0
  174.4790  -34.5950   59.7600 N   0  0  0  0  0  0  0  0  0  0  0  0
  175.1950  -34.6060   60.8780 C   0  0  0  0  0  0  0  0  0  0  0  0
  176.4950  -34.8640   60.8330 N   0  0  0  0  0  0  0  0  0  0  0  0
  174.6120  -34.3570   62.0420 N   0  0  0  0  0  0  0  0  0  0  0  0
  173.2050  -39.8430   59.1920 N   0  0  0  0  0  0  0  0  0  0  0  0
  172.4260  -39.4150   60.3530 C   0  0  2  0  0  0  0  0  0  0  0  0
  170.9830  -39.1480   59.9560 C   0  0  0  0  0  0  0  0  0  0  0  0
  170.7100  -38.1640   59.2420 O   0  0  0  0  0  0  0  0  0  0  0  0
  173.0480  -38.1690   60.9830 C   0  0  0  0  0  0  0  0  0  0  0  0
  174.4540  -38.3770   61.4640 C   0  0  0  0  0  0  0  0  0  0  0  0
  174.6980  -38.8630   62.7380 C   0  0  0  0  0  0  0  0  0  0  0  0
  175.5310  -38.0950   60.6410 C   0  0  0  0  0  0  0  0  0  0  0  0
  175.9910  -39.0600   63.1830 C   0  0  0  0  0  0  0  0  0  0  0  0
  176.8260  -38.2900   61.0800 C   0  0  0  0  0  0  0  0  0  0  0  0
  177.0560  -38.7720   62.3530 C   0  0  0  0  0  0  0  0  0  0  0  0
  170.0360  -39.9830   60.3810 N   0  0  0  0  0  0  0  0  0  0  0  0
  168.6300  -39.7340   60.0490 C   0  0  2  0  0  0  0  0  0  0  0  0
  168.1130  -38.4870   60.7470 C   0  0  0  0  0  0  0  0  0  0  0  0
  168.4360  -38.2210   61.9070 O   0  0  0  0  0  0  0  0  0  0  0  0
  167.9190  -40.9950   60.5540 C   0  0  0  0  0  0  0  0  0  0  0  0
  168.8170  -41.5310   61.6170 C   0  0  0  0  0  0  0  0  0  0  0  0
  170.2140  -41.2080   61.1780 C   0  0  0  0  0  0  0  0  0  0  0  0
  167.3040  -37.7180   60.0230 N   0  0  0  0  0  0  0  0  0  0  0  0
  166.7640  -36.4640   60.5310 C   0  0  2  0  0  0  0  0  0  0  0  0
  165.2500  -36.5010   60.6850 C   0  0  0  0  0  0  0  0  0  0  0  0
  164.6360  -35.4630   60.9540 O   0  0  0  0  0  0  0  0  0  0  0  0
  167.1740  -35.3110   59.6140 C   0  0  2  0  0  0  0  0  0  0  0  0
  166.5700  -35.4820   58.3270 O   0  0  0  0  0  0  0  0  0  0  0  0
  168.6880  -35.2700   59.4550 C   0  0  0  0  0  0  0  0  0  0  0  0
  161.6490  -37.0830   62.4000 N   0  0  0  0  0  0  0  0  0  0  0  0
  161.1000  -36.9830   63.7420 C   0  0  2  0  0  0  0  0  0  0  0  0
  159.6320  -37.3850   63.7350 C   0  0  0  0  0  0  0  0  0  0  0  0
  158.8830  -37.0080   62.8250 O   0  0  0  0  0  0  0  0  0  0  0  0
  161.2580  -35.5600   64.2980 C   0  0  0  0  0  0  0  0  0  0  0  0
  162.6900  -35.1710   64.6740 C   0  0  0  0  0  0  0  0  0  0  0  0
  162.7600  -33.7270   65.1430 C   0  0  0  0  0  0  0  0  0  0  0  0
  163.2300  -36.1110   65.7420 C   0  0  0  0  0  0  0  0  0  0  0  0
  164.3720  -33.1590   59.1900 N   0  0  0  0  0  0  0  0  0  0  0  0
  165.2530  -32.0120   59.4060 C   0  0  2  0  0  0  0  0  0  0  0  0
  166.5700  -32.1940   58.6530 C   0  0  0  0  0  0  0  0  0  0  0  0
  167.6350  -32.2120   59.2870 O   0  0  0  0  0  0  0  0  0  0  0  0
  165.5150  -31.7920   60.9070 C   0  0  2  0  0  0  0  0  0  0  0  0
  164.2290  -31.9530   61.7180 C   0  0  0  0  0  0  0  0  0  0  0  0
  166.0620  -30.3940   61.1650 C   0  0  0  0  0  0  0  0  0  0  0  0
  163.2260  -30.8500   61.4730 C   0  0  0  0  0  0  0  0  0  0  0  0
  170.0300  -31.5310   56.7460 N   0  0  0  0  0  0  0  0  0  0  0  0
  171.0310  -30.4800   56.8730 C   0  0  2  0  0  0  0  0  0  0  0  0
  172.3830  -31.0630   56.4730 C   0  0  0  0  0  0  0  0  0  0  0  0
  172.4620  -32.1510   55.8940 O   0  0  0  0  0  0  0  0  0  0  0  0
  171.0530  -29.9170   58.2980 C   0  0  0  0  0  0  0  0  0  0  0  0
  171.4990  -30.9060   59.3280 C   0  0  0  0  0  0  0  0  0  0  0  0
  170.7000  -31.9420   59.7600 N   0  0  0  0  0  0  0  0  0  0  0  0
  172.6640  -31.0210   60.0080 C   0  0  0  0  0  0  0  0  0  0  0  0
  171.3520  -32.6520   60.6630 C   0  0  0  0  0  0  0  0  0  0  0  0
  172.5460  -32.1140   60.8330 N   0  0  0  0  0  0  0  0  0  0  0  0
  173.4480  -30.3350   56.7880 N   0  0  0  0  0  0  0  0  0  0  0  0
  174.8150  -30.7760   56.5350 C   0  0  2  0  0  0  0  0  0  0  0  0
  175.7440  -29.9290   57.4000 C   0  0  0  0  0  0  0  0  0  0  0  0
  175.2960  -29.2090   58.2980 O   0  0  0  0  0  0  0  0  0  0  0  0
  175.1630  -30.6760   55.0460 C   0  0  2  0  0  0  0  0  0  0  0  0
  176.4640  -31.2310   54.8180 O   0  0  0  0  0  0  0  0  0  0  0  0
  175.1530  -29.2260   54.5940 C   0  0  0  0  0  0  0  0  0  0  0  0
  177.0450  -30.0150   57.1310 N   0  0  0  0  0  0  0  0  0  0  0  0
  178.0140  -29.2180   57.8670 C   0  0  2  0  0  0  0  0  0  0  0  0
  177.8730  -27.7400   57.5180 C   0  0  0  0  0  0  0  0  0  0  0  0
  177.4210  -27.3750   56.4290 O   0  0  0  0  0  0  0  0  0  0  0  0
  179.4340  -29.6980   57.5670 C   0  0  0  0  0  0  0  0  0  0  0  0
  179.7020  -31.0900   58.1030 C   0  0  0  0  0  0  0  0  0  0  0  0
  179.0530  -32.0470   57.6290 O   0  0  0  0  0  0  0  0  0  0  0  0
  180.5600  -31.2250   58.9990 O   0  0  0  0  0  0  0  0  0  0  0  0
  178.2660  -26.8820   58.4630 N   0  0  0  0  0  0  0  0  0  0  0  0
  178.1340  -25.4430   58.2670 C   0  0  2  0  0  0  0  0  0  0  0  0
  179.0650  -24.9140   57.1830 C   0  0  0  0  0  0  0  0  0  0  0  0
  178.8020  -23.8440   56.6240 O   0  0  0  0  0  0  0  0  0  0  0  0
  178.3970  -24.7040   59.5810 C   0  0  0  0  0  0  0  0  0  0  0  0
  177.4560  -25.0700   60.5770 O   0  0  0  0  0  0  0  0  0  0  0  0
  165.2730  -40.0480   63.7940 N   0  0  0  0  0  0  0  0  0  0  0  0
  166.4840  -39.4230   64.3060 C   0  0  2  0  0  0  0  0  0  0  0  0
  166.8570  -40.0100   65.6610 C   0  0  0  0  0  0  0  0  0  0  0  0
  165.9910  -40.2930   66.4950 O   0  0  0  0  0  0  0  0  0  0  0  0
  166.2970  -37.9100   64.4210 C   0  0  0  0  0  0  0  0  0  0  0  0
  168.1580  -40.1880   65.8790 N   0  0  0  0  0  0  0  0  0  0  0  0
  168.6640  -40.7910   67.0890 C   0  0  0  0  0  0  0  0  0  0  0  0
  168.8230  -42.2960   67.0330 C   0  0  0  0  0  0  0  0  0  0  0  0
  169.5010  -42.8650   67.8960 O   0  0  0  0  0  0  0  0  0  0  0  0
  177.3660  -23.0740   63.9180 N   0  0  0  0  0  0  0  0  0  0  0  0
  177.0300  -24.2720   64.6800 C   0  0  2  0  0  0  0  0  0  0  0  0
  176.2170  -23.9430   65.9260 C   0  0  0  0  0  0  0  0  0  0  0  0
  175.3560  -24.7330   66.3280 O   0  0  0  0  0  0  0  0  0  0  0  0
  178.3170  -25.0070   65.0530 C   0  0  0  0  0  0  0  0  0  0  0  0
  178.1350  -26.3230   65.7490 C   0  0  0  0  0  0  0  0  0  0  0  0
  177.8280  -27.5190   65.1700 C   0  0  0  0  0  0  0  0  0  0  0  0
  178.2840  -26.5840   67.1520 C   0  0  0  0  0  0  0  0  0  0  0  0
  177.7610  -28.5050   66.1240 N   0  0  0  0  0  0  0  0  0  0  0  0
  178.0380  -27.9570   67.3490 C   0  0  0  0  0  0  0  0  0  0  0  0
  178.5960  -25.7900   68.2600 C   0  0  0  0  0  0  0  0  0  0  0  0
  178.0930  -28.5540   68.6080 C   0  0  0  0  0  0  0  0  0  0  0  0
  178.6490  -26.3840   69.5100 C   0  0  0  0  0  0  0  0  0  0  0  0
  178.3980  -27.7520   69.6730 C   0  0  0  0  0  0  0  0  0  0  0  0
  172.2960  -23.6760   65.6360 N   0  0  0  0  0  0  0  0  0  0  0  0
  171.5280  -24.8520   65.2360 C   0  0  2  0  0  0  0  0  0  0  0  0
  170.5700  -25.2780   66.3400 C   0  0  0  0  0  0  0  0  0  0  0  0
  169.4100  -25.6180   66.0780 O   0  0  0  0  0  0  0  0  0  0  0  0
  172.4820  -25.9950   64.8420 C   0  0  2  0  0  0  0  0  0  0  0  0
  173.2190  -25.6520   63.5470 C   0  0  0  0  0  0  0  0  0  0  0  0
  171.7250  -27.2990   64.6920 C   0  0  0  0  0  0  0  0  0  0  0  0
  174.1370  -26.7550   63.0680 C   0  0  0  0  0  0  0  0  0  0  0  0
  171.0360  -25.2670   67.5900 N   0  0  0  0  0  0  0  0  0  0  0  0
  170.2000  -25.7290   68.6940 C   0  0  2  0  0  0  0  0  0  0  0  0
  168.9580  -24.8570   68.8570 C   0  0  0  0  0  0  0  0  0  0  0  0
  167.8740  -25.3640   69.1690 O   0  0  0  0  0  0  0  0  0  0  0  0
  171.0150  -25.7620   69.9860 C   0  0  2  0  0  0  0  0  0  0  0  0
  172.1110  -26.6700   69.8300 O   0  0  0  0  0  0  0  0  0  0  0  0
  170.1580  -26.2210   71.1490 C   0  0  0  0  0  0  0  0  0  0  0  0
  166.4380  -25.9670   66.3110 N   0  0  0  0  0  0  0  0  0  0  0  0
  165.7720  -27.1980   66.7260 C   0  0  2  0  0  0  0  0  0  0  0  0
  164.6760  -26.9100   67.7420 C   0  0  0  0  0  0  0  0  0  0  0  0
  163.6470  -27.5950   67.7580 O   0  0  0  0  0  0  0  0  0  0  0  0
  166.7860  -28.1820   67.3050 C   0  0  0  0  0  0  0  0  0  0  0  0
  167.8170  -28.7740   66.3440 C   0  0  0  0  0  0  0  0  0  0  0  0
  168.7030  -29.7770   67.0700 C   0  0  0  0  0  0  0  0  0  0  0  0
  167.1300  -29.4230   65.1520 C   0  0  0  0  0  0  0  0  0  0  0  0
  2  1  1  6
  3  2  1  0
  4  3  2  0
  5  2  1  0
  6  5  1  0
  7  6  1  0
  8  7  1  0
  9  8  1  0
 10  9  1  0
 11  9  2  0
 13 12  1  6
 14 13  1  0
 15 14  2  0
 16 13  1  0
 17 16  1  0
 18 17  2  0
 19 17  1  0
 20 18  1  0
 21 19  2  0
 22 21  1  0
 22 20  2  0
 23 14  1  0
 24 23  1  0
 24 25  1  1
 26 25  2  0
 27 24  1  0
 28 27  1  0
 29 28  1  0
 29 23  1  0
 30 25  1  0
 31 30  1  6
 32 31  1  0
 33 32  2  0
 34 31  1  0
 35 34  1  0
 34 36  1  6
 38 37  1  6
 39 38  1  0
 40 39  2  0
 41 38  1  0
 42 41  1  0
 43 42  1  0
 44 42  1  0
 46 45  1  1
 47 46  1  0
 48 47  2  0
 49 46  1  0
 50 49  1  0
 49 51  1  6
 52 50  1  0
 54 53  1  1
 55 54  1  0
 56 55  2  0
 57 54  1  0
 58 57  1  0
 59 58  1  0
 60 58  2  0
 61 59  2  0
 62 61  1  0
 62 60  1  0
 63 55  1  0
 64 63  1  6
 65 64  1  0
 66 65  2  0
 67 64  1  0
 68 67  1  0
 67 69  1  1
 70 65  1  0
 71 70  1  0
 72 71  1  0
 73 72  2  0
 71 74  1  6
 75 74  1  0
 76 75  2  0
 77 75  1  0
 78 72  1  0
 79 78  1  0
 80 79  1  0
 81 80  2  0
 79 82  1  1
 83 82  1  0
 85 84  1  0
 86 85  1  0
 87 86  2  0
 85 88  1  1
 89 86  1  0
 90 89  1  0
 91 90  1  0
 92 91  2  0
 94 93  1  1
 95 94  1  0
 96 95  2  0
 97 94  1  0
 98 97  1  0
 99 98  2  0
100 98  1  0
101 99  1  0
102101  1  0
102100  2  0
103100  1  0
104102  1  0
105103  2  0
106104  2  0
106105  1  0
108107  1  1
109108  1  0
110109  2  0
111108  1  0
112111  1  0
111113  1  6
114112  1  0
115109  1  0
116115  1  6
117116  1  0
118117  2  0
119116  1  0
120119  1  0
119121  1  1
123122  1  1
124123  1  0
125124  2  0
126123  1  0
127126  1  0
128127  1  0
129127  1  0
M  END
$$$$
