
     RDKit          3D

152147  0  0  0  0  0  0  0  0999 V2000
  103.7430   31.8340  291.4320 N   0  0  0  0  0  0  0  0  0  0  0  0
  103.3020   32.8490  290.4720 C   0  0  2  0  0  0  0  0  0  0  0  0
  104.3500   33.1200  289.4190 C   0  0  0  0  0  0  0  0  0  0  0  0
  105.3390   33.8070  289.6890 O   0  0  0  0  0  0  0  0  0  0  0  0
  103.0840   34.0880  291.3460 C   0  0  0  0  0  0  0  0  0  0  0  0
  103.9830   33.9140  292.4460 C   0  0  0  0  0  0  0  0  0  0  0  0
  103.9940   32.4400  292.7480 C   0  0  0  0  0  0  0  0  0  0  0  0
   97.2500   32.1450  299.6430 N   0  0  0  0  0  0  0  0  0  0  0  0
   98.5420   32.7840  299.8180 C   0  0  2  0  0  0  0  0  0  0  0  0
   99.6280   31.7940  299.4160 C   0  0  0  0  0  0  0  0  0  0  0  0
   99.3720   30.7810  298.7610 O   0  0  0  0  0  0  0  0  0  0  0  0
   98.7040   33.2580  301.2560 C   0  0  0  0  0  0  0  0  0  0  0  0
   97.7950   34.3840  301.6130 C   0  0  0  0  0  0  0  0  0  0  0  0
   97.8880   34.7220  303.0880 C   0  0  0  0  0  0  0  0  0  0  0  0
   99.2060   35.3770  303.4480 C   0  0  0  0  0  0  0  0  0  0  0  0
   99.2180   35.7980  304.8700 N   0  0  0  0  0  0  0  0  0  0  0  0
  100.8740   32.1100  299.7710 N   0  0  0  0  0  0  0  0  0  0  0  0
  101.9460   31.1370  299.6570 C   0  0  2  0  0  0  0  0  0  0  0  0
  101.5810   29.8310  300.3500 C   0  0  0  0  0  0  0  0  0  0  0  0
  101.8870   28.7470  299.8400 O   0  0  0  0  0  0  0  0  0  0  0  0
  103.2410   31.7190  300.2360 C   0  0  2  0  0  0  0  0  0  0  0  0
  104.3180   30.7980  300.0300 O   0  0  0  0  0  0  0  0  0  0  0  0
  103.1180   32.0360  301.7350 C   0  0  0  0  0  0  0  0  0  0  0  0
  100.9000   29.9140  301.4980 N   0  0  0  0  0  0  0  0  0  0  0  0
  100.7400   28.7420  302.3470 C   0  0  2  0  0  0  0  0  0  0  0  0
   99.3610   28.0840  302.3000 C   0  0  0  0  0  0  0  0  0  0  0  0
   99.2620   26.9500  301.8180 O   0  0  0  0  0  0  0  0  0  0  0  0
  101.1210   29.1200  303.7860 C   0  0  0  0  0  0  0  0  0  0  0  0
  100.3540   30.3180  304.3190 C   0  0  0  0  0  0  0  0  0  0  0  0
   99.5430   30.8870  303.5560 O   0  0  0  0  0  0  0  0  0  0  0  0
  100.5600   30.6900  305.4930 O   0  0  0  0  0  0  0  0  0  0  0  0
   96.2160   37.3970  296.9650 N   0  0  0  0  0  0  0  0  0  0  0  0
   96.8680   37.8120  295.7300 C   0  0  2  0  0  0  0  0  0  0  0  0
   98.3650   37.5910  295.8680 C   0  0  0  0  0  0  0  0  0  0  0  0
   99.0390   38.3330  296.5870 O   0  0  0  0  0  0  0  0  0  0  0  0
   96.5500   39.2750  295.4440 C   0  0  0  0  0  0  0  0  0  0  0  0
   97.0320   39.7200  294.1030 C   0  0  0  0  0  0  0  0  0  0  0  0
   96.6550   41.3920  293.5470 S   0  0  0  0  0  0  0  0  0  0  0  0
   97.7920   42.3320  294.5410 C   0  0  0  0  0  0  0  0  0  0  0  0
   98.8780   36.5840  295.1650 N   0  0  0  0  0  0  0  0  0  0  0  0
  100.3000   36.2590  295.1430 C   0  0  2  0  0  0  0  0  0  0  0  0
  100.8240   36.3750  293.7190 C   0  0  0  0  0  0  0  0  0  0  0  0
  100.5420   35.5130  292.8800 O   0  0  0  0  0  0  0  0  0  0  0  0
  100.5420   34.8580  295.6910 C   0  0  0  0  0  0  0  0  0  0  0  0
  101.9190   34.5260  295.6370 O   0  0  0  0  0  0  0  0  0  0  0  0
  101.5740   37.4390  293.4460 N   0  0  0  0  0  0  0  0  0  0  0  0
  102.4060   37.5380  292.2580 C   0  0  2  0  0  0  0  0  0  0  0  0
  103.8660   37.4930  292.6690 C   0  0  0  0  0  0  0  0  0  0  0  0
  104.1990   37.4330  293.8550 O   0  0  0  0  0  0  0  0  0  0  0  0
  102.1230   38.8120  291.4610 C   0  0  0  0  0  0  0  0  0  0  0  0
  102.4300   40.0770  292.1870 C   0  0  0  0  0  0  0  0  0  0  0  0
  101.4760   40.6940  292.9680 C   0  0  0  0  0  0  0  0  0  0  0  0
  103.6600   40.6770  292.0450 C   0  0  0  0  0  0  0  0  0  0  0  0
  101.7600   41.8740  293.6210 C   0  0  0  0  0  0  0  0  0  0  0  0
  103.9520   41.8490  292.6930 C   0  0  0  0  0  0  0  0  0  0  0  0
  102.9990   42.4540  293.4790 C   0  0  0  0  0  0  0  0  0  0  0  0
  104.7370   37.5480  291.6700 N   0  0  0  0  0  0  0  0  0  0  0  0
  106.1720   37.5580  291.8870 C   0  0  2  0  0  0  0  0  0  0  0  0
  106.6790   38.9930  291.8650 C   0  0  0  0  0  0  0  0  0  0  0  0
  106.4690   39.7170  290.8870 O   0  0  0  0  0  0  0  0  0  0  0  0
  106.8990   36.7320  290.8320 C   0  0  0  0  0  0  0  0  0  0  0  0
  108.3920   36.6180  291.1090 C   0  0  0  0  0  0  0  0  0  0  0  0
  109.2870   35.6330  289.9060 S   0  0  0  0  0  0  0  0  0  0  0  0
  108.7100   33.9970  290.3130 C   0  0  0  0  0  0  0  0  0  0  0  0
  107.3570   39.3850  292.9370 N   0  0  0  0  0  0  0  0  0  0  0  0
  108.1280   40.6170  292.9980 C   0  0  2  0  0  0  0  0  0  0  0  0
  109.5370   40.2210  293.4030 C   0  0  0  0  0  0  0  0  0  0  0  0
  109.7390   39.6510  294.4810 O   0  0  0  0  0  0  0  0  0  0  0  0
  107.5160   41.6030  293.9990 C   0  0  0  0  0  0  0  0  0  0  0  0
  107.9280   43.0680  293.7610 C   0  0  0  0  0  0  0  0  0  0  0  0
  107.2590   43.9670  294.2670 O   0  0  0  0  0  0  0  0  0  0  0  0
  109.0160   43.3150  293.0300 N   0  0  0  0  0  0  0  0  0  0  0  0
  112.7840   37.7720  292.8300 N   0  0  0  0  0  0  0  0  0  0  0  0
  112.6590   36.3260  292.8090 C   0  0  2  0  0  0  0  0  0  0  0  0
  111.4920   35.8340  293.6550 C   0  0  0  0  0  0  0  0  0  0  0  0
  111.1440   34.6530  293.5750 O   0  0  0  0  0  0  0  0  0  0  0  0
  113.9570   35.6980  293.3170 C   0  0  0  0  0  0  0  0  0  0  0  0
  114.2640   36.0460  294.7730 C   0  0  0  0  0  0  0  0  0  0  0  0
  115.5990   35.5210  295.2390 C   0  0  0  0  0  0  0  0  0  0  0  0
  115.8230   35.8910  296.7000 C   0  0  0  0  0  0  0  0  0  0  0  0
  115.9840   37.3490  296.9270 N   0  0  0  0  0  0  0  0  0  0  0  0
  110.8900   36.7080  294.4540 N   0  0  0  0  0  0  0  0  0  0  0  0
  110.0100   36.3390  295.5470 C   0  0  2  0  0  0  0  0  0  0  0  0
  108.5540   36.5460  295.1700 C   0  0  0  0  0  0  0  0  0  0  0  0
  108.2190   37.3420  294.2930 O   0  0  0  0  0  0  0  0  0  0  0  0
  110.3150   37.1800  296.7830 C   0  0  2  0  0  0  0  0  0  0  0  0
  110.0740   38.5600  296.4820 O   0  0  0  0  0  0  0  0  0  0  0  0
  111.7580   37.0090  297.2130 C   0  0  0  0  0  0  0  0  0  0  0  0
  107.6890   35.8260  295.8730 N   0  0  0  0  0  0  0  0  0  0  0  0
  106.2590   36.0410  295.7840 C   0  0  2  0  0  0  0  0  0  0  0  0
  105.8750   37.3320  296.4970 C   0  0  0  0  0  0  0  0  0  0  0  0
  106.7080   38.0320  297.0790 O   0  0  0  0  0  0  0  0  0  0  0  0
  105.5170   34.8700  296.4090 C   0  0  0  0  0  0  0  0  0  0  0  0
  105.7030   33.5790  295.6910 C   0  0  0  0  0  0  0  0  0  0  0  0
  104.9230   32.4640  296.3400 C   0  0  0  0  0  0  0  0  0  0  0  0
  104.3170   32.6510  297.3930 O   0  0  0  0  0  0  0  0  0  0  0  0
  104.9140   31.3030  295.7110 N   0  0  0  0  0  0  0  0  0  0  0  0
  104.5850   37.6600  296.4380 N   0  0  0  0  0  0  0  0  0  0  0  0
  104.0120   38.6440  297.3520 C   0  0  2  0  0  0  0  0  0  0  0  0
  102.5440   38.2680  297.5580 C   0  0  0  0  0  0  0  0  0  0  0  0
  101.6600   38.7850  296.8740 O   0  0  0  0  0  0  0  0  0  0  0  0
  104.1670   40.0500  296.8020 C   0  0  0  0  0  0  0  0  0  0  0  0
  103.7200   41.1330  297.7560 C   0  0  0  0  0  0  0  0  0  0  0  0
  103.8320   42.5090  297.1350 C   0  0  0  0  0  0  0  0  0  0  0  0
  105.2740   42.9640  297.0310 C   0  0  0  0  0  0  0  0  0  0  0  0
  105.3670   44.3540  296.5270 N   0  0  0  0  0  0  0  0  0  0  0  0
  102.2980   37.4290  298.5620 N   0  0  0  0  0  0  0  0  0  0  0  0
  100.9780   36.8380  298.7860 C   0  0  2  0  0  0  0  0  0  0  0  0
  100.1790   37.7570  299.6960 C   0  0  0  0  0  0  0  0  0  0  0  0
  100.2220   37.6510  300.9220 O   0  0  0  0  0  0  0  0  0  0  0  0
  101.1100   35.4370  299.3670 C   0  0  0  0  0  0  0  0  0  0  0  0
  101.6980   35.4580  300.6540 O   0  0  0  0  0  0  0  0  0  0  0  0
   99.4460   38.6760  299.0750 N   0  0  0  0  0  0  0  0  0  0  0  0
   98.7250   39.7390  299.7660 C   0  0  2  0  0  0  0  0  0  0  0  0
   97.3400   39.8890  299.1370 C   0  0  0  0  0  0  0  0  0  0  0  0
   96.9010   39.0160  298.3870 O   0  0  0  0  0  0  0  0  0  0  0  0
   99.5490   41.0450  299.7620 C   0  0  2  0  0  0  0  0  0  0  0  0
   99.9290   41.5060  298.3510 C   0  0  0  0  0  0  0  0  0  0  0  0
  100.8270   40.8680  300.5670 C   0  0  0  0  0  0  0  0  0  0  0  0
   98.9760   42.4410  297.7710 C   0  0  0  0  0  0  0  0  0  0  0  0
  118.3550   31.3600  299.1930 N   0  0  0  0  0  0  0  0  0  0  0  0
  118.1410   30.6390  300.4380 C   0  0  2  0  0  0  0  0  0  0  0  0
  118.9700   29.3670  300.4630 C   0  0  0  0  0  0  0  0  0  0  0  0
  118.6050   28.3960  301.1330 O   0  0  0  0  0  0  0  0  0  0  0  0
  116.6620   30.3080  300.6130 C   0  0  0  0  0  0  0  0  0  0  0  0
  116.4340   29.5670  301.7960 O   0  0  0  0  0  0  0  0  0  0  0  0
  115.7020   27.2750  290.8150 N   0  0  0  0  0  0  0  0  0  0  0  0
  114.9410   27.3670  292.0550 C   0  0  2  0  0  0  0  0  0  0  0  0
  113.6900   26.5200  291.9440 C   0  0  0  0  0  0  0  0  0  0  0  0
  112.5730   26.9530  292.2370 O   0  0  0  0  0  0  0  0  0  0  0  0
  114.6060   28.8210  292.3580 C   0  0  0  0  0  0  0  0  0  0  0  0
  114.0350   29.0150  293.7480 C   0  0  0  0  0  0  0  0  0  0  0  0
  113.8840   28.0160  294.4830 O   0  0  0  0  0  0  0  0  0  0  0  0
  113.7250   30.1690  294.1060 O   0  0  0  0  0  0  0  0  0  0  0  0
  111.8620   24.4740  293.4280 N   0  0  0  0  0  0  0  0  0  0  0  0
  111.0770   23.9700  294.5410 C   0  0  2  0  0  0  0  0  0  0  0  0
  109.5830   24.0830  294.2880 C   0  0  0  0  0  0  0  0  0  0  0  0
  108.7970   23.4590  295.0090 O   0  0  0  0  0  0  0  0  0  0  0  0
  111.4430   24.7180  295.8260 C   0  0  0  0  0  0  0  0  0  0  0  0
  111.1210   26.2010  295.8210 C   0  0  0  0  0  0  0  0  0  0  0  0
  111.5860   26.8520  297.1110 C   0  0  0  0  0  0  0  0  0  0  0  0
  111.2400   28.3270  297.1410 C   0  0  0  0  0  0  0  0  0  0  0  0
  112.0100   29.0950  296.1260 N   0  0  0  0  0  0  0  0  0  0  0  0
  109.1770   24.8720  293.2930 N   0  0  0  0  0  0  0  0  0  0  0  0
  107.7810   25.0100  292.9160 C   0  0  2  0  0  0  0  0  0  0  0  0
  107.6840   25.0570  291.4010 C   0  0  0  0  0  0  0  0  0  0  0  0
  108.3910   25.8330  290.7550 O   0  0  0  0  0  0  0  0  0  0  0  0
  107.1730   26.2710  293.5290 C   0  0  0  0  0  0  0  0  0  0  0  0
  107.0380   26.1860  295.0410 C   0  0  0  0  0  0  0  0  0  0  0  0
  106.5410   27.4770  295.6670 C   0  0  0  0  0  0  0  0  0  0  0  0
  105.0860   27.7450  295.3640 C   0  0  0  0  0  0  0  0  0  0  0  0
  104.1810   26.7530  295.9790 N   0  0  0  0  0  0  0  0  0  0  0  0
  2  1  1  0
  2  3  1  6
  4  3  2  0
  5  2  1  0
  6  5  1  0
  7  1  1  0
  7  6  1  0
  9  8  1  1
 10  9  1  0
 11 10  2  0
 12  9  1  0
 13 12  1  0
 14 13  1  0
 15 14  1  0
 16 15  1  0
 17 10  1  0
 18 17  1  1
 19 18  1  0
 20 19  2  0
 21 18  1  0
 22 21  1  0
 21 23  1  1
 24 19  1  0
 25 24  1  0
 26 25  1  0
 27 26  2  0
 25 28  1  1
 29 28  1  0
 30 29  2  0
 31 29  1  0
 33 32  1  1
 34 33  1  0
 35 34  2  0
 36 33  1  0
 37 36  1  0
 38 37  1  0
 39 38  1  0
 40 34  1  0
 41 40  1  0
 42 41  1  0
 43 42  2  0
 41 44  1  6
 45 44  1  0
 46 42  1  0
 47 46  1  0
 48 47  1  0
 49 48  2  0
 47 50  1  1
 51 50  1  0
 52 51  2  0
 53 51  1  0
 54 52  1  0
 55 53  2  0
 56 54  2  0
 56 55  1  0
 57 48  1  0
 58 57  1  0
 59 58  1  0
 60 59  2  0
 58 61  1  6
 62 61  1  0
 63 62  1  0
 64 63  1  0
 65 59  1  0
 66 65  1  0
 67 66  1  0
 68 67  2  0
 66 69  1  1
 70 69  1  0
 71 70  2  0
 72 70  1  0
 74 73  1  1
 75 74  1  0
 76 75  2  0
 77 74  1  0
 78 77  1  0
 79 78  1  0
 80 79  1  0
 81 80  1  0
 82 75  1  0
 83 82  1  6
 84 83  1  0
 85 84  2  0
 86 83  1  0
 87 86  1  0
 86 88  1  6
 89 84  1  0
 90 89  1  0
 91 90  1  0
 92 91  2  0
 90 93  1  1
 94 93  1  0
 95 94  1  0
 96 95  2  0
 97 95  1  0
 98 91  1  0
 99 98  1  0
100 99  1  0
101100  2  0
 99102  1  6
103102  1  0
104103  1  0
105104  1  0
106105  1  0
107100  1  0
108107  1  0
109108  1  0
110109  2  0
108111  1  1
112111  1  0
113109  1  0
114113  1  6
115114  1  0
116115  2  0
117114  1  0
118117  1  0
117119  1  1
120118  1  0
122121  1  6
123122  1  0
124123  2  0
125122  1  0
126125  1  0
128127  1  6
129128  1  0
130129  2  0
131128  1  0
132131  1  0
133132  2  0
134132  1  0
136135  1  6
137136  1  0
138137  2  0
139136  1  0
140139  1  0
141140  1  0
142141  1  0
143142  1  0
144137  1  0
145144  1  0
146145  1  0
147146  2  0
145148  1  1
149148  1  0
150149  1  0
151150  1  0
152151  1  0
M  END
$$$$
