
     RDKit          3D

102 99  0  0  0  0  0  0  0  0999 V2000
   48.9810   25.2780   37.9230 N   0  0  0  0  0  0  0  0  0  0  0  0
   47.9160   26.2350   37.6550 C   0  0  2  0  0  0  0  0  0  0  0  0
   48.3410   27.5990   38.1850 C   0  0  0  0  0  0  0  0  0  0  0  0
   48.9490   27.6910   39.2540 O   0  0  0  0  0  0  0  0  0  0  0  0
   46.5860   25.8010   38.3010 C   0  0  0  0  0  0  0  0  0  0  0  0
   45.9520   24.6080   37.6120 C   0  0  0  0  0  0  0  0  0  0  0  0
   45.2420   24.9860   36.3230 C   0  0  0  0  0  0  0  0  0  0  0  0
   45.6730   24.5940   35.2360 O   0  0  0  0  0  0  0  0  0  0  0  0
   44.1540   25.7470   36.4350 N   0  0  0  0  0  0  0  0  0  0  0  0
   48.0280   28.6550   37.4350 N   0  0  0  0  0  0  0  0  0  0  0  0
   48.2920   30.0270   37.8550 C   0  0  2  0  0  0  0  0  0  0  0  0
   46.9760   30.6460   38.3050 C   0  0  0  0  0  0  0  0  0  0  0  0
   46.0450   30.8040   37.5030 O   0  0  0  0  0  0  0  0  0  0  0  0
   48.9330   30.8500   36.7270 C   0  0  0  0  0  0  0  0  0  0  0  0
   49.2200   32.2790   37.2010 C   0  0  0  0  0  0  0  0  0  0  0  0
   50.2110   30.1860   36.2460 C   0  0  0  0  0  0  0  0  0  0  0  0
   46.9070   31.0200   39.5790 N   0  0  0  0  0  0  0  0  0  0  0  0
   45.6710   31.4410   40.2240 C   0  0  2  0  0  0  0  0  0  0  0  0
   45.8350   32.8790   40.6930 C   0  0  0  0  0  0  0  0  0  0  0  0
   46.6750   33.1620   41.5570 O   0  0  0  0  0  0  0  0  0  0  0  0
   45.3150   30.5220   41.4010 C   0  0  2  0  0  0  0  0  0  0  0  0
   44.9870   29.1210   40.8900 C   0  0  0  0  0  0  0  0  0  0  0  0
   44.1590   31.1070   42.2090 C   0  0  0  0  0  0  0  0  0  0  0  0
   44.9250   28.0940   41.9720 C   0  0  0  0  0  0  0  0  0  0  0  0
   45.6780   42.1750   27.3240 N   0  0  0  0  0  0  0  0  0  0  0  0
   45.6700   40.8990   26.6330 C   0  0  2  0  0  0  0  0  0  0  0  0
   45.9190   41.1440   25.1520 C   0  0  0  0  0  0  0  0  0  0  0  0
   45.7030   42.2430   24.6360 O   0  0  0  0  0  0  0  0  0  0  0  0
   44.3350   40.1620   26.8430 C   0  0  0  0  0  0  0  0  0  0  0  0
   46.3800   40.1100   24.4670 N   0  0  0  0  0  0  0  0  0  0  0  0
   46.6180   40.2080   23.0480 C   0  0  0  0  0  0  0  0  0  0  0  0
   48.0490   40.5690   22.7020 C   0  0  0  0  0  0  0  0  0  0  0  0
   48.9400   40.5850   23.5580 O   0  0  0  0  0  0  0  0  0  0  0  0
   48.2910   40.8780   21.4240 N   0  0  0  0  0  0  0  0  0  0  0  0
   49.6620   41.1900   20.9860 C   0  0  2  0  0  0  0  0  0  0  0  0
   50.2300   42.4580   21.5910 C   0  0  0  0  0  0  0  0  0  0  0  0
   51.4590   42.5970   21.6360 O   0  0  0  0  0  0  0  0  0  0  0  0
   49.5150   41.3290   19.4650 C   0  0  0  0  0  0  0  0  0  0  0  0
   48.2980   40.5250   19.1400 C   0  0  0  0  0  0  0  0  0  0  0  0
   47.3650   40.7820   20.2840 C   0  0  0  0  0  0  0  0  0  0  0  0
   50.5140   43.4690   24.6790 N   0  0  0  0  0  0  0  0  0  0  0  0
   50.7050   43.3580   26.1210 C   0  0  2  0  0  0  0  0  0  0  0  0
   51.8830   44.2160   26.5630 C   0  0  0  0  0  0  0  0  0  0  0  0
   52.9900   44.0830   26.0320 O   0  0  0  0  0  0  0  0  0  0  0  0
   50.9690   41.8990   26.5090 C   0  0  0  0  0  0  0  0  0  0  0  0
   49.7340   41.0410   26.6390 C   0  0  0  0  0  0  0  0  0  0  0  0
   49.9870   39.7800   27.4620 C   0  0  0  0  0  0  0  0  0  0  0  0
   51.1110   38.9960   26.9580 N   0  0  0  0  0  0  0  0  0  0  0  0
   51.1940   37.6740   27.0550 C   0  0  0  0  0  0  0  0  0  0  0  0
   50.2130   36.9860   27.6320 N   0  0  0  0  0  0  0  0  0  0  0  0
   52.2520   37.0390   26.5740 N   0  0  0  0  0  0  0  0  0  0  0  0
   51.6520   35.5060   34.3330 N   0  0  0  0  0  0  0  0  0  0  0  0
   51.8510   34.4790   33.3150 C   0  0  2  0  0  0  0  0  0  0  0  0
   53.0790   33.6540   33.6650 C   0  0  0  0  0  0  0  0  0  0  0  0
   54.1460   34.2080   33.9670 O   0  0  0  0  0  0  0  0  0  0  0  0
   51.9920   35.0810   31.9060 C   0  0  0  0  0  0  0  0  0  0  0  0
   52.1560   33.9660   30.8700 C   0  0  0  0  0  0  0  0  0  0  0  0
   50.7800   35.9440   31.5600 C   0  0  0  0  0  0  0  0  0  0  0  0
   55.5210   30.8300   26.6120 N   0  0  0  0  0  0  0  0  0  0  0  0
   54.3180   30.9230   27.4240 C   0  0  2  0  0  0  0  0  0  0  0  0
   53.7900   29.5420   27.7850 C   0  0  0  0  0  0  0  0  0  0  0  0
   53.7250   28.6490   26.9400 O   0  0  0  0  0  0  0  0  0  0  0  0
   53.2500   31.6700   26.6280 C   0  0  0  0  0  0  0  0  0  0  0  0
   52.3460   32.5430   27.4350 C   0  0  0  0  0  0  0  0  0  0  0  0
   51.3220   33.2430   26.5650 C   0  0  0  0  0  0  0  0  0  0  0  0
   50.9610   32.6950   25.4960 O   0  0  0  0  0  0  0  0  0  0  0  0
   50.8960   34.3550   26.9380 O   0  0  0  0  0  0  0  0  0  0  0  0
   53.4110   29.3660   29.0470 N   0  0  0  0  0  0  0  0  0  0  0  0
   52.8650   28.0970   29.5140 C   0  0  2  0  0  0  0  0  0  0  0  0
   51.4370   28.2150   30.0280 C   0  0  0  0  0  0  0  0  0  0  0  0
   50.5640   27.4830   29.5550 O   0  0  0  0  0  0  0  0  0  0  0  0
   53.7620   27.4910   30.5980 C   0  0  0  0  0  0  0  0  0  0  0  0
   53.3410   26.1220   31.0210 C   0  0  0  0  0  0  0  0  0  0  0  0
   53.3940   25.0610   30.1340 C   0  0  0  0  0  0  0  0  0  0  0  0
   52.8400   25.9030   32.2890 C   0  0  0  0  0  0  0  0  0  0  0  0
   52.9920   23.8000   30.5270 C   0  0  0  0  0  0  0  0  0  0  0  0
   52.4320   24.6490   32.6810 C   0  0  0  0  0  0  0  0  0  0  0  0
   52.5160   23.5980   31.8070 C   0  0  0  0  0  0  0  0  0  0  0  0
   51.1900   29.0320   31.0540 N   0  0  0  0  0  0  0  0  0  0  0  0
   49.8340   29.2580   31.5440 C   0  0  2  0  0  0  0  0  0  0  0  0
   49.7100   30.6860   32.0410 C   0  0  0  0  0  0  0  0  0  0  0  0
   50.6970   31.3310   32.3980 O   0  0  0  0  0  0  0  0  0  0  0  0
   49.4230   28.2780   32.6520 C   0  0  0  0  0  0  0  0  0  0  0  0
   49.3940   26.8110   32.2400 C   0  0  0  0  0  0  0  0  0  0  0  0
   48.4740   26.0110   33.1300 C   0  0  0  0  0  0  0  0  0  0  0  0
   47.6980   24.9740   32.3240 C   0  0  0  0  0  0  0  0  0  0  0  0
   46.2130   25.2210   32.3120 N   0  0  0  0  0  0  0  0  0  0  0  0
   48.4780   31.1780   32.0570 N   0  0  0  0  0  0  0  0  0  0  0  0
   48.1950   32.5350   32.4970 C   0  0  2  0  0  0  0  0  0  0  0  0
   47.1370   32.4880   33.5810 C   0  0  0  0  0  0  0  0  0  0  0  0
   46.2670   31.6110   33.5780 O   0  0  0  0  0  0  0  0  0  0  0  0
   47.7130   33.4110   31.3460 C   0  0  0  0  0  0  0  0  0  0  0  0
   47.1190   34.6270   31.7970 O   0  0  0  0  0  0  0  0  0  0  0  0
   47.2350   33.4240   34.5290 N   0  0  0  0  0  0  0  0  0  0  0  0
   46.1280   33.6630   35.4250 C   0  0  0  0  0  0  0  0  0  0  0  0
   44.9770   34.3180   34.6750 C   0  0  0  0  0  0  0  0  0  0  0  0
   45.1240   34.7780   33.5410 O   0  0  0  0  0  0  0  0  0  0  0  0
   43.8160   34.3750   35.3430 N   0  0  0  0  0  0  0  0  0  0  0  0
   42.5920   34.9160   34.7460 C   0  0  2  0  0  0  0  0  0  0  0  0
   42.6480   36.4240   34.5530 C   0  0  0  0  0  0  0  0  0  0  0  0
   41.8420   36.9680   33.7800 O   0  0  0  0  0  0  0  0  0  0  0  0
   41.3680   34.5580   35.6080 C   0  0  0  0  0  0  0  0  0  0  0  0
  2  1  1  1
  3  2  1  0
  4  3  2  0
  5  2  1  0
  6  5  1  0
  7  6  1  0
  8  7  2  0
  9  7  1  0
 10  3  1  0
 11 10  1  6
 12 11  1  0
 13 12  2  0
 14 11  1  0
 15 14  1  0
 16 14  1  0
 17 12  1  0
 18 17  1  1
 19 18  1  0
 20 19  2  0
 21 18  1  0
 22 21  1  0
 21 23  1  6
 24 22  1  0
 26 25  1  0
 27 26  1  0
 28 27  2  0
 26 29  1  6
 30 27  1  0
 31 30  1  0
 32 31  1  0
 33 32  2  0
 34 32  1  0
 35 34  1  0
 35 36  1  1
 37 36  2  0
 38 35  1  0
 39 38  1  0
 40 39  1  0
 40 34  1  0
 42 41  1  6
 43 42  1  0
 44 43  2  0
 45 42  1  0
 46 45  1  0
 47 46  1  0
 48 47  1  0
 49 48  1  0
 50 49  1  0
 51 49  2  0
 53 52  1  1
 54 53  1  0
 55 54  2  0
 56 53  1  0
 57 56  1  0
 58 56  1  0
 60 59  1  6
 61 60  1  0
 62 61  2  0
 63 60  1  0
 64 63  1  0
 65 64  1  0
 66 65  2  0
 67 65  1  0
 68 61  1  0
 69 68  1  0
 70 69  1  0
 71 70  2  0
 69 72  1  1
 73 72  1  0
 74 73  2  0
 75 73  1  0
 76 74  1  0
 77 75  2  0
 78 77  1  0
 78 76  2  0
 79 70  1  0
 80 79  1  0
 81 80  1  0
 82 81  2  0
 80 83  1  1
 84 83  1  0
 85 84  1  0
 86 85  1  0
 87 86  1  0
 88 81  1  0
 89 88  1  0
 90 89  1  0
 91 90  2  0
 89 92  1  6
 93 92  1  0
 94 90  1  0
 95 94  1  0
 96 95  1  0
 97 96  2  0
 98 96  1  0
 99 98  1  0
100 99  1  0
101100  2  0
 99102  1  1
M  END
$$$$
