
     RDKit          3D

136132  0  0  0  0  0  0  0  0999 V2000
  202.3740  218.5340  186.1780 N   0  0  0  0  0  0  0  0  0  0  0  0
  201.2010  219.3920  186.0470 C   0  0  2  0  0  0  0  0  0  0  0  0
  201.6030  220.7480  185.4890 C   0  0  0  0  0  0  0  0  0  0  0  0
  201.2090  221.1130  184.3800 O   0  0  0  0  0  0  0  0  0  0  0  0
  200.4900  219.5150  187.3890 C   0  0  2  0  0  0  0  0  0  0  0  0
  201.4660  219.5960  188.4310 O   0  0  0  0  0  0  0  0  0  0  0  0
  199.5910  218.3200  187.6000 C   0  0  0  0  0  0  0  0  0  0  0  0
  190.1250  230.7980  180.2960 N   0  0  0  0  0  0  0  0  0  0  0  0
  190.0050  229.4310  180.7670 C   0  0  2  0  0  0  0  0  0  0  0  0
  190.8210  228.4500  179.9460 C   0  0  0  0  0  0  0  0  0  0  0  0
  190.8770  227.2700  180.3010 O   0  0  0  0  0  0  0  0  0  0  0  0
  188.5360  228.9960  180.7630 C   0  0  0  0  0  0  0  0  0  0  0  0
  191.4390  228.8990  178.8640 N   0  0  0  0  0  0  0  0  0  0  0  0
  192.2410  228.0400  178.0080 C   0  0  2  0  0  0  0  0  0  0  0  0
  193.7110  228.3220  178.2800 C   0  0  0  0  0  0  0  0  0  0  0  0
  194.1500  229.4730  178.1880 O   0  0  0  0  0  0  0  0  0  0  0  0
  191.9060  228.2750  176.5390 C   0  0  0  0  0  0  0  0  0  0  0  0
  190.4250  228.2060  176.2370 C   0  0  0  0  0  0  0  0  0  0  0  0
  189.9520  226.7730  176.1600 C   0  0  0  0  0  0  0  0  0  0  0  0
  188.4980  226.7040  175.7460 C   0  0  0  0  0  0  0  0  0  0  0  0
  187.8980  225.3860  176.0740 N   0  0  0  0  0  0  0  0  0  0  0  0
  194.4560  227.2750  178.6130 N   0  0  0  0  0  0  0  0  0  0  0  0
  195.8440  227.4210  179.0090 C   0  0  2  0  0  0  0  0  0  0  0  0
  196.7080  227.8240  177.8240 C   0  0  0  0  0  0  0  0  0  0  0  0
  196.3720  227.5670  176.6680 O   0  0  0  0  0  0  0  0  0  0  0  0
  196.3590  226.1170  179.6030 C   0  0  0  0  0  0  0  0  0  0  0  0
  195.5840  225.6910  180.8220 C   0  0  0  0  0  0  0  0  0  0  0  0
  194.9880  226.5140  181.5080 O   0  0  0  0  0  0  0  0  0  0  0  0
  195.5840  224.3980  181.1020 N   0  0  0  0  0  0  0  0  0  0  0  0
  200.1930  230.8150  191.3050 N   0  0  0  0  0  0  0  0  0  0  0  0
  199.0600  229.8810  191.2240 C   0  0  2  0  0  0  0  0  0  0  0  0
  198.0990  229.9550  192.4010 C   0  0  0  0  0  0  0  0  0  0  0  0
  198.0810  229.0380  193.2240 O   0  0  0  0  0  0  0  0  0  0  0  0
  199.5210  228.4260  191.0660 C   0  0  0  0  0  0  0  0  0  0  0  0
  200.2530  227.9590  192.1800 O   0  0  0  0  0  0  0  0  0  0  0  0
  197.3100  231.0360  192.4610 N   0  0  0  0  0  0  0  0  0  0  0  0
  196.5330  231.5530  193.5910 C   0  0  2  0  0  0  0  0  0  0  0  0
  195.9260  230.5380  194.5510 C   0  0  0  0  0  0  0  0  0  0  0  0
  196.0020  230.7220  195.7680 O   0  0  0  0  0  0  0  0  0  0  0  0
  195.3970  232.4230  193.0570 C   0  0  0  0  0  0  0  0  0  0  0  0
  195.8510  233.2750  192.0230 O   0  0  0  0  0  0  0  0  0  0  0  0
  195.3220  229.4760  194.0330 N   0  0  0  0  0  0  0  0  0  0  0  0
  194.7570  228.4900  194.9310 C   0  0  0  0  0  0  0  0  0  0  0  0
  194.6750  227.1450  194.2520 C   0  0  0  0  0  0  0  0  0  0  0  0
  195.0850  226.9780  193.1050 O   0  0  0  0  0  0  0  0  0  0  0  0
  194.1510  226.1780  194.9840 N   0  0  0  0  0  0  0  0  0  0  0  0
  193.9010  224.8750  194.4220 C   0  0  0  0  0  0  0  0  0  0  0  0
  194.3370  223.7780  195.3510 C   0  0  0  0  0  0  0  0  0  0  0  0
  194.7160  224.0120  196.5010 O   0  0  0  0  0  0  0  0  0  0  0  0
  194.2830  222.5520  194.8440 N   0  0  0  0  0  0  0  0  0  0  0  0
  194.6970  221.3800  195.5890 C   0  0  2  0  0  0  0  0  0  0  0  0
  196.2180  221.2920  195.6470 C   0  0  0  0  0  0  0  0  0  0  0  0
  196.9380  222.1180  195.0870 O   0  0  0  0  0  0  0  0  0  0  0  0
  194.1250  220.1250  194.9490 C   0  0  0  0  0  0  0  0  0  0  0  0
  193.7640  219.0810  195.9610 C   0  0  0  0  0  0  0  0  0  0  0  0
  194.0120  219.3190  197.1570 O   0  0  0  0  0  0  0  0  0  0  0  0
  193.2380  218.0220  195.5670 O   0  0  0  0  0  0  0  0  0  0  0  0
  198.0810  219.1720  194.2090 N   0  0  0  0  0  0  0  0  0  0  0  0
  198.6940  218.6560  193.0040 C   0  0  2  0  0  0  0  0  0  0  0  0
  198.5750  219.6090  191.8240 C   0  0  0  0  0  0  0  0  0  0  0  0
  198.9060  219.2280  190.7020 O   0  0  0  0  0  0  0  0  0  0  0  0
  198.0960  217.2950  192.6770 C   0  0  0  0  0  0  0  0  0  0  0  0
  198.2120  216.3550  193.8650 C   0  0  0  0  0  0  0  0  0  0  0  0
  197.8510  214.9260  193.5530 C   0  0  0  0  0  0  0  0  0  0  0  0
  197.5280  214.6310  192.3880 O   0  0  0  0  0  0  0  0  0  0  0  0
  197.8850  214.0920  194.4810 O   0  0  0  0  0  0  0  0  0  0  0  0
  198.1010  220.8360  192.0470 N   0  0  0  0  0  0  0  0  0  0  0  0
  198.0290  221.8420  190.9900 C   0  0  2  0  0  0  0  0  0  0  0  0
  198.7310  223.1230  191.4270 C   0  0  0  0  0  0  0  0  0  0  0  0
  199.3770  223.7970  190.6180 O   0  0  0  0  0  0  0  0  0  0  0  0
  196.5620  222.0700  190.5870 C   0  0  0  0  0  0  0  0  0  0  0  0
  196.3620  223.3470  189.8210 C   0  0  0  0  0  0  0  0  0  0  0  0
  196.1410  220.9570  189.6920 C   0  0  0  0  0  0  0  0  0  0  0  0
  196.6310  209.8350  194.1440 N   0  0  0  0  0  0  0  0  0  0  0  0
  195.3000  209.7510  193.5690 C   0  0  2  0  0  0  0  0  0  0  0  0
  195.2690  210.4000  192.1960 C   0  0  0  0  0  0  0  0  0  0  0  0
  194.4700  211.3160  191.9780 O   0  0  0  0  0  0  0  0  0  0  0  0
  194.2790  210.4100  194.4890 C   0  0  0  0  0  0  0  0  0  0  0  0
  192.8990  209.8210  194.3250 C   0  0  0  0  0  0  0  0  0  0  0  0
  192.6200  209.1340  193.3470 O   0  0  0  0  0  0  0  0  0  0  0  0
  192.0290  210.0790  195.2890 N   0  0  0  0  0  0  0  0  0  0  0  0
  196.1810  209.9950  191.3070 N   0  0  0  0  0  0  0  0  0  0  0  0
  196.2180  210.5330  189.9500 C   0  0  2  0  0  0  0  0  0  0  0  0
  194.8990  210.2940  189.2290 C   0  0  0  0  0  0  0  0  0  0  0  0
  194.2690  209.2470  189.3880 O   0  0  0  0  0  0  0  0  0  0  0  0
  197.3570  209.9060  189.1450 C   0  0  0  0  0  0  0  0  0  0  0  0
  198.7480  210.4070  189.4870 C   0  0  0  0  0  0  0  0  0  0  0  0
  198.8550  212.1900  189.7320 S   0  0  0  0  0  0  0  0  0  0  0  0
  198.5940  212.8030  188.0750 C   0  0  0  0  0  0  0  0  0  0  0  0
  194.4640  211.3210  188.5000 N   0  0  0  0  0  0  0  0  0  0  0  0
  193.2450  211.4470  187.7020 C   0  0  2  0  0  0  0  0  0  0  0  0
  191.9700  211.5330  188.5270 C   0  0  0  0  0  0  0  0  0  0  0  0
  190.8910  211.6340  187.9290 O   0  0  0  0  0  0  0  0  0  0  0  0
  193.0960  210.3270  186.6640 C   0  0  0  0  0  0  0  0  0  0  0  0
  194.2880  210.2050  185.7850 C   0  0  0  0  0  0  0  0  0  0  0  0
  194.6580  211.0510  184.7830 C   0  0  0  0  0  0  0  0  0  0  0  0
  195.2780  209.1860  185.8360 C   0  0  0  0  0  0  0  0  0  0  0  0
  195.8190  210.6140  184.2000 N   0  0  0  0  0  0  0  0  0  0  0  0
  196.2210  209.4690  184.8310 C   0  0  0  0  0  0  0  0  0  0  0  0
  195.4590  208.0580  186.6280 C   0  0  0  0  0  0  0  0  0  0  0  0
  197.3200  208.6700  184.6040 C   0  0  0  0  0  0  0  0  0  0  0  0
  196.5480  207.2690  186.4030 C   0  0  0  0  0  0  0  0  0  0  0  0
  197.4660  207.5740  185.3990 C   0  0  0  0  0  0  0  0  0  0  0  0
  192.0550  211.5110  189.8650 N   0  0  0  0  0  0  0  0  0  0  0  0
  190.9500  211.8150  190.7870 C   0  0  2  0  0  0  0  0  0  0  0  0
  189.7440  210.9040  190.5650 C   0  0  0  0  0  0  0  0  0  0  0  0
  188.5980  211.3560  190.5000 O   0  0  0  0  0  0  0  0  0  0  0  0
  190.5560  213.2940  190.7040 C   0  0  0  0  0  0  0  0  0  0  0  0
  189.8980  213.8830  191.9550 C   0  0  0  0  0  0  0  0  0  0  0  0
  190.8790  214.2040  193.0470 C   0  0  0  0  0  0  0  0  0  0  0  0
  192.0840  214.1370  192.8520 O   0  0  0  0  0  0  0  0  0  0  0  0
  190.3650  214.5710  194.2110 N   0  0  0  0  0  0  0  0  0  0  0  0
  198.4030  223.4450  186.3720 N   0  0  0  0  0  0  0  0  0  0  0  0
  198.3990  222.1870  185.6610 C   0  0  0  0  0  0  0  0  0  0  0  0
  197.0420  221.7880  185.1440 C   0  0  0  0  0  0  0  0  0  0  0  0
  196.8250  221.7370  183.9320 O   0  0  0  0  0  0  0  0  0  0  0  0
  196.1230  221.5230  186.0590 N   0  0  0  0  0  0  0  0  0  0  0  0
  194.7760  221.1500  185.6620 C   0  0  0  0  0  0  0  0  0  0  0  0
  194.7520  219.7810  185.0150 C   0  0  0  0  0  0  0  0  0  0  0  0
  195.2660  218.7970  185.5570 O   0  0  0  0  0  0  0  0  0  0  0  0
  194.1550  219.7330  183.8280 N   0  0  0  0  0  0  0  0  0  0  0  0
  193.9510  218.4840  183.1150 C   0  0  2  0  0  0  0  0  0  0  0  0
  195.2720  217.9270  182.6170 C   0  0  0  0  0  0  0  0  0  0  0  0
  196.1410  218.6680  182.1540 O   0  0  0  0  0  0  0  0  0  0  0  0
  193.0040  218.7040  181.9420 C   0  0  0  0  0  0  0  0  0  0  0  0
  192.1270  217.5090  181.6750 C   0  0  0  0  0  0  0  0  0  0  0  0
  192.2210  216.5250  182.4360 O   0  0  0  0  0  0  0  0  0  0  0  0
  191.3370  217.5550  180.7090 O   0  0  0  0  0  0  0  0  0  0  0  0
  195.4200  216.6050  182.7120 N   0  0  0  0  0  0  0  0  0  0  0  0
  196.6630  215.9610  182.3090 C   0  0  2  0  0  0  0  0  0  0  0  0
  196.8090  215.8700  180.8000 C   0  0  0  0  0  0  0  0  0  0  0  0
  197.8700  215.4640  180.3240 O   0  0  0  0  0  0  0  0  0  0  0  0
  196.7490  214.5590  182.9060 C   0  0  0  0  0  0  0  0  0  0  0  0
  196.4880  214.4930  184.3970 C   0  0  0  0  0  0  0  0  0  0  0  0
  197.7160  215.3940  185.3480 S   0  0  0  0  0  0  0  0  0  0  0  0
  199.2000  214.5750  184.7880 C   0  0  0  0  0  0  0  0  0  0  0  0
  2  1  1  1
  3  2  1  0
  4  3  2  0
  5  2  1  0
  6  5  1  0
  5  7  1  1
  9  8  1  0
 10  9  1  0
 11 10  2  0
  9 12  1  6
 13 10  1  0
 14 13  1  0
 15 14  1  0
 16 15  2  0
 14 17  1  6
 18 17  1  0
 19 18  1  0
 20 19  1  0
 21 20  1  0
 22 15  1  0
 23 22  1  0
 24 23  1  0
 25 24  2  0
 23 26  1  6
 27 26  1  0
 28 27  2  0
 29 27  1  0
 31 30  1  1
 32 31  1  0
 33 32  2  0
 34 31  1  0
 35 34  1  0
 36 32  1  0
 37 36  1  0
 38 37  1  0
 39 38  2  0
 37 40  1  6
 41 40  1  0
 42 38  1  0
 43 42  1  0
 44 43  1  0
 45 44  2  0
 46 44  1  0
 47 46  1  0
 48 47  1  0
 49 48  2  0
 50 48  1  0
 51 50  1  0
 52 51  1  0
 53 52  2  0
 51 54  1  6
 55 54  1  0
 56 55  2  0
 57 55  1  0
 59 58  1  1
 60 59  1  0
 61 60  2  0
 62 59  1  0
 63 62  1  0
 64 63  1  0
 65 64  2  0
 66 64  1  0
 67 60  1  0
 68 67  1  1
 69 68  1  0
 70 69  2  0
 71 68  1  0
 72 71  1  0
 73 71  1  0
 75 74  1  1
 76 75  1  0
 77 76  2  0
 78 75  1  0
 79 78  1  0
 80 79  2  0
 81 79  1  0
 82 76  1  0
 83 82  1  0
 84 83  1  0
 85 84  2  0
 83 86  1  6
 87 86  1  0
 88 87  1  0
 89 88  1  0
 90 84  1  0
 91 90  1  0
 92 91  1  0
 93 92  2  0
 91 94  1  6
 95 94  1  0
 96 95  2  0
 97 95  1  0
 98 96  1  0
 99 98  1  0
 99 97  2  0
100 97  1  0
101 99  1  0
102100  2  0
103101  2  0
103102  1  0
104 92  1  0
105104  1  0
106105  1  0
107106  2  0
105108  1  6
109108  1  0
110109  1  0
111110  2  0
112110  1  0
114113  1  0
115114  1  0
116115  2  0
117115  1  0
118117  1  0
119118  1  0
120119  2  0
121119  1  0
122121  1  0
123122  1  0
124123  2  0
122125  1  6
126125  1  0
127126  2  0
128126  1  0
129123  1  0
130129  1  0
131130  1  0
132131  2  0
130133  1  1
134133  1  0
135134  1  0
136135  1  0
M  END
$$$$
