
     RDKit          3D

 71 68  0  0  0  0  0  0  0  0999 V2000
    8.4540  -14.2990  -29.1720 N   0  0  0  0  0  0  0  0  0  0  0  0
    7.5620  -14.1470  -30.3190 C   0  0  2  0  0  0  0  0  0  0  0  0
    6.1510  -13.9860  -29.7910 C   0  0  0  0  0  0  0  0  0  0  0  0
    5.6200  -14.8980  -29.1540 O   0  0  0  0  0  0  0  0  0  0  0  0
    7.6480  -15.3360  -31.3410 C   0  0  0  0  0  0  0  0  0  0  0  0
    6.4190  -15.3880  -32.3300 C   0  0  0  0  0  0  0  0  0  0  0  0
    5.2670  -15.2260  -31.8720 O   0  0  0  0  0  0  0  0  0  0  0  0
    6.6270  -15.7260  -33.6210 N   0  0  0  0  0  0  0  0  0  0  0  0
    3.3980  -14.0850  -31.6910 N   0  0  0  0  0  0  0  0  0  0  0  0
    2.4620  -14.9910  -32.3740 C   0  0  2  0  0  0  0  0  0  0  0  0
    2.4670  -16.3980  -31.7770 C   0  0  0  0  0  0  0  0  0  0  0  0
    1.4920  -17.1350  -31.9580 O   0  0  0  0  0  0  0  0  0  0  0  0
    2.7450  -15.0850  -33.8940 C   0  0  2  0  0  0  0  0  0  0  0  0
    4.1430  -15.1700  -34.1420 O   0  0  0  0  0  0  0  0  0  0  0  0
    2.2260  -13.8640  -34.6260 C   0  0  0  0  0  0  0  0  0  0  0  0
    3.5340  -16.7880  -31.0820 N   0  0  0  0  0  0  0  0  0  0  0  0
    3.5950  -18.0630  -30.3670 C   0  0  2  0  0  0  0  0  0  0  0  0
    3.0380  -17.8650  -28.9580 C   0  0  0  0  0  0  0  0  0  0  0  0
    3.6970  -17.2670  -28.1140 O   0  0  0  0  0  0  0  0  0  0  0  0
    5.0280  -18.5860  -30.3060 C   0  0  0  0  0  0  0  0  0  0  0  0
    5.1300  -19.9030  -29.5640 C   0  0  0  0  0  0  0  0  0  0  0  0
    4.1610  -20.3640  -28.9560 O   0  0  0  0  0  0  0  0  0  0  0  0
    6.3050  -20.5200  -29.6100 N   0  0  0  0  0  0  0  0  0  0  0  0
    1.8470  -18.4030  -28.6990 N   0  0  0  0  0  0  0  0  0  0  0  0
    1.1870  -18.1600  -27.4270 C   0  0  2  0  0  0  0  0  0  0  0  0
    1.8240  -18.9230  -26.2590 C   0  0  0  0  0  0  0  0  0  0  0  0
    1.4130  -18.7250  -25.1170 O   0  0  0  0  0  0  0  0  0  0  0  0
   -0.3090  -18.4870  -27.5440 C   0  0  0  0  0  0  0  0  0  0  0  0
   -0.5960  -19.9850  -27.5860 C   0  0  0  0  0  0  0  0  0  0  0  0
    0.1000  -20.7960  -26.9570 O   0  0  0  0  0  0  0  0  0  0  0  0
   -1.6530  -20.3600  -28.3170 N   0  0  0  0  0  0  0  0  0  0  0  0
   -0.8240  -14.7430  -23.4120 N   0  0  0  0  0  0  0  0  0  0  0  0
   -1.9140  -14.6190  -24.3640 C   0  0  2  0  0  0  0  0  0  0  0  0
   -2.6260  -15.9510  -24.5360 C   0  0  0  0  0  0  0  0  0  0  0  0
   -2.0020  -17.0020  -24.5340 O   0  0  0  0  0  0  0  0  0  0  0  0
   -1.3730  -14.1500  -25.7080 C   0  0  0  0  0  0  0  0  0  0  0  0
   -2.4150  -13.7240  -26.6690 C   0  0  0  0  0  0  0  0  0  0  0  0
   -1.7500  -12.9600  -27.7850 C   0  0  0  0  0  0  0  0  0  0  0  0
   -0.8590  -13.8140  -28.5560 N   0  0  0  0  0  0  0  0  0  0  0  0
   -1.2840  -14.6630  -29.4830 C   0  0  0  0  0  0  0  0  0  0  0  0
   -2.5820  -14.7540  -29.7510 N   0  0  0  0  0  0  0  0  0  0  0  0
   -0.4170  -15.4220  -30.1380 N   0  0  0  0  0  0  0  0  0  0  0  0
   -3.9320  -15.9070  -24.6890 N   0  0  0  0  0  0  0  0  0  0  0  0
   -4.6890  -17.1350  -24.8270 C   0  0  2  0  0  0  0  0  0  0  0  0
   -4.7430  -17.5310  -26.2920 C   0  0  0  0  0  0  0  0  0  0  0  0
   -5.0750  -16.7310  -27.1580 O   0  0  0  0  0  0  0  0  0  0  0  0
   -6.0880  -16.9820  -24.2310 C   0  0  0  0  0  0  0  0  0  0  0  0
   -6.1180  -17.3260  -22.7330 C   0  0  0  0  0  0  0  0  0  0  0  0
   -5.8740  -16.4250  -21.8970 O   0  0  0  0  0  0  0  0  0  0  0  0
   -6.3690  -18.5050  -22.3900 O   0  0  0  0  0  0  0  0  0  0  0  0
   -4.3950  -18.7700  -26.5700 N   0  0  0  0  0  0  0  0  0  0  0  0
   -4.3760  -19.2750  -27.9150 C   0  0  0  0  0  0  0  0  0  0  0  0
   -5.7880  -19.4370  -28.4360 C   0  0  0  0  0  0  0  0  0  0  0  0
   -6.7740  -18.9880  -27.8420 O   0  0  0  0  0  0  0  0  0  0  0  0
   -5.8780  -20.1420  -29.5650 N   0  0  0  0  0  0  0  0  0  0  0  0
   -7.0900  -20.0760  -30.3430 C   0  0  0  0  0  0  0  0  0  0  0  0
   -7.2720  -18.6220  -30.7200 C   0  0  0  0  0  0  0  0  0  0  0  0
   -6.3090  -17.8370  -30.7780 O   0  0  0  0  0  0  0  0  0  0  0  0
   -8.5180  -18.2410  -30.9530 N   0  0  0  0  0  0  0  0  0  0  0  0
   -8.8920  -16.8290  -31.0340 C   0  0  2  0  0  0  0  0  0  0  0  0
   -8.3400  -16.1410  -32.2780 C   0  0  0  0  0  0  0  0  0  0  0  0
   -8.3430  -14.9110  -32.3650 O   0  0  0  0  0  0  0  0  0  0  0  0
   -8.4660  -16.0580  -29.7710 C   0  0  0  0  0  0  0  0  0  0  0  0
   -7.8550  -16.8990  -33.2570 N   0  0  0  0  0  0  0  0  0  0  0  0
   -7.4830  -16.2520  -34.5060 C   0  0  2  0  0  0  0  0  0  0  0  0
   -8.7100  -15.7660  -35.2560 C   0  0  0  0  0  0  0  0  0  0  0  0
   -8.6570  -14.7310  -35.9260 O   0  0  0  0  0  0  0  0  0  0  0  0
   -6.6710  -17.1950  -35.3830 C   0  0  0  0  0  0  0  0  0  0  0  0
   -5.8520  -16.4560  -36.4080 C   0  0  0  0  0  0  0  0  0  0  0  0
   -5.9780  -15.2390  -36.5610 O   0  0  0  0  0  0  0  0  0  0  0  0
   -4.9780  -17.1810  -37.1000 N   0  0  0  0  0  0  0  0  0  0  0  0
  2  1  1  1
  3  2  1  0
  4  3  2  0
  5  2  1  0
  6  5  1  0
  7  6  2  0
  8  6  1  0
 10  9  1  1
 11 10  1  0
 12 11  2  0
 13 10  1  0
 14 13  1  0
 13 15  1  6
 16 11  1  0
 17 16  1  0
 18 17  1  0
 19 18  2  0
 17 20  1  1
 21 20  1  0
 22 21  2  0
 23 21  1  0
 24 18  1  0
 25 24  1  0
 26 25  1  0
 27 26  2  0
 25 28  1  6
 29 28  1  0
 30 29  2  0
 31 29  1  0
 33 32  1  1
 34 33  1  0
 35 34  2  0
 36 33  1  0
 37 36  1  0
 38 37  1  0
 39 38  1  0
 40 39  1  0
 41 40  1  0
 42 40  2  0
 43 34  1  0
 44 43  1  0
 45 44  1  0
 46 45  2  0
 44 47  1  6
 48 47  1  0
 49 48  2  0
 50 48  1  0
 51 45  1  0
 52 51  1  0
 53 52  1  0
 54 53  2  0
 55 53  1  0
 56 55  1  0
 57 56  1  0
 58 57  2  0
 59 57  1  0
 60 59  1  0
 61 60  1  0
 62 61  2  0
 60 63  1  1
 64 61  1  0
 65 64  1  0
 66 65  1  0
 67 66  2  0
 65 68  1  6
 69 68  1  0
 70 69  2  0
 71 69  1  0
M  END
$$$$
