
     RDKit          3D

128123  0  0  0  0  0  0  0  0999 V2000
  -12.3290  -28.4140   22.9650 N   0  0  0  0  0  0  0  0  0  0  0  0
  -11.1620  -28.0530   22.1660 C   0  0  2  0  0  0  0  0  0  0  0  0
   -9.8810  -28.0670   22.9950 C   0  0  0  0  0  0  0  0  0  0  0  0
   -8.7820  -28.1790   22.4380 O   0  0  0  0  0  0  0  0  0  0  0  0
  -11.3700  -26.6780   21.5310 C   0  0  0  0  0  0  0  0  0  0  0  0
  -12.6140  -26.6080   20.8530 O   0  0  0  0  0  0  0  0  0  0  0  0
   -9.9960  -27.9570   24.3130 N   0  0  0  0  0  0  0  0  0  0  0  0
   -8.8270  -27.9900   25.1690 C   0  0  0  0  0  0  0  0  0  0  0  0
   -9.1650  -27.5180   26.5670 C   0  0  0  0  0  0  0  0  0  0  0  0
  -10.3140  -27.1930   26.8810 O   0  0  0  0  0  0  0  0  0  0  0  0
   -8.1380  -27.4920   27.4060 N   0  0  0  0  0  0  0  0  0  0  0  0
   -8.2650  -27.0540   28.7790 C   0  0  0  0  0  0  0  0  0  0  0  0
   -7.7360  -28.0950   29.7430 C   0  0  0  0  0  0  0  0  0  0  0  0
   -7.1470  -29.1110   29.3550 O   0  0  0  0  0  0  0  0  0  0  0  0
   -7.9530  -27.8290   31.0280 N   0  0  0  0  0  0  0  0  0  0  0  0
   -7.5190  -28.7650   32.0460 C   0  0  2  0  0  0  0  0  0  0  0  0
   -8.4480  -29.9750   32.0610 C   0  0  0  0  0  0  0  0  0  0  0  0
   -9.5810  -29.9210   31.5790 O   0  0  0  0  0  0  0  0  0  0  0  0
   -7.5040  -28.0990   33.4230 C   0  0  0  0  0  0  0  0  0  0  0  0
   -6.4170  -27.0570   33.5600 C   0  0  0  0  0  0  0  0  0  0  0  0
   -5.5040  -27.0290   32.7120 O   0  0  0  0  0  0  0  0  0  0  0  0
   -6.4540  -26.2800   34.5340 O   0  0  0  0  0  0  0  0  0  0  0  0
  -10.2320  -31.3030   34.2870 N   0  0  0  0  0  0  0  0  0  0  0  0
  -11.4950  -31.0840   34.9840 C   0  0  2  0  0  0  0  0  0  0  0  0
  -12.6270  -30.6780   34.0470 C   0  0  0  0  0  0  0  0  0  0  0  0
  -13.7440  -31.1910   34.1550 O   0  0  0  0  0  0  0  0  0  0  0  0
  -11.2790  -30.0320   36.0840 C   0  0  0  0  0  0  0  0  0  0  0  0
  -10.3290  -30.4930   37.2080 C   0  0  0  0  0  0  0  0  0  0  0  0
   -8.8460  -30.2760   36.9100 C   0  0  0  0  0  0  0  0  0  0  0  0
   -8.5150  -29.8070   35.8000 O   0  0  0  0  0  0  0  0  0  0  0  0
   -8.0080  -30.6130   37.7750 O   0  0  0  0  0  0  0  0  0  0  0  0
  -12.3660  -29.7550   33.1210 N   0  0  0  0  0  0  0  0  0  0  0  0
  -13.3810  -29.4130   32.1300 C   0  0  2  0  0  0  0  0  0  0  0  0
  -13.2150  -30.2160   30.8470 C   0  0  0  0  0  0  0  0  0  0  0  0
  -14.1970  -30.4170   30.1180 O   0  0  0  0  0  0  0  0  0  0  0  0
  -13.3710  -27.9060   31.8120 C   0  0  2  0  0  0  0  0  0  0  0  0
  -12.0270  -27.4840   31.2130 C   0  0  0  0  0  0  0  0  0  0  0  0
  -13.6910  -27.1060   33.0640 C   0  0  0  0  0  0  0  0  0  0  0  0
  -12.0490  -27.3490   29.7070 C   0  0  0  0  0  0  0  0  0  0  0  0
   -5.5990  -31.8620   42.1710 N   0  0  0  0  0  0  0  0  0  0  0  0
   -6.8580  -31.2310   41.8050 C   0  0  2  0  0  0  0  0  0  0  0  0
   -6.6310  -29.7290   41.8300 C   0  0  0  0  0  0  0  0  0  0  0  0
   -6.0040  -29.2020   42.7540 O   0  0  0  0  0  0  0  0  0  0  0  0
   -8.0060  -31.6320   42.7600 C   0  0  2  0  0  0  0  0  0  0  0  0
   -8.3120  -33.1270   42.6540 C   0  0  0  0  0  0  0  0  0  0  0  0
   -9.2660  -30.8280   42.4600 C   0  0  0  0  0  0  0  0  0  0  0  0
   -7.6960  -33.9510   43.7580 C   0  0  0  0  0  0  0  0  0  0  0  0
   -7.0950  -29.0460   40.7880 N   0  0  0  0  0  0  0  0  0  0  0  0
   -7.1570  -27.5890   40.8030 C   0  0  2  0  0  0  0  0  0  0  0  0
   -8.4650  -27.1910   41.4830 C   0  0  0  0  0  0  0  0  0  0  0  0
   -9.4310  -26.7800   40.8390 O   0  0  0  0  0  0  0  0  0  0  0  0
   -7.0440  -27.0310   39.3890 C   0  0  0  0  0  0  0  0  0  0  0  0
   -5.6970  -27.3310   38.7510 C   0  0  0  0  0  0  0  0  0  0  0  0
   -5.0050  -28.2670   39.1520 O   0  0  0  0  0  0  0  0  0  0  0  0
   -5.3190  -26.5380   37.7530 N   0  0  0  0  0  0  0  0  0  0  0  0
   -8.4610  -27.3520   42.8200 N   0  0  0  0  0  0  0  0  0  0  0  0
   -9.5970  -27.1660   43.7280 C   0  0  2  0  0  0  0  0  0  0  0  0
  -10.7210  -26.3290   43.1470 C   0  0  0  0  0  0  0  0  0  0  0  0
  -10.4870  -25.2130   42.6700 O   0  0  0  0  0  0  0  0  0  0  0  0
   -9.1480  -26.5290   45.0470 C   0  0  0  0  0  0  0  0  0  0  0  0
   -8.2490  -27.3940   45.8960 C   0  0  0  0  0  0  0  0  0  0  0  0
   -9.0660  -28.9350   46.3620 S   0  0  0  0  0  0  0  0  0  0  0  0
  -10.3610  -28.3250   47.4410 C   0  0  0  0  0  0  0  0  0  0  0  0
  -11.9470  -26.8460   43.2240 N   0  0  0  0  0  0  0  0  0  0  0  0
  -13.0140  -26.3090   42.3930 C   0  0  2  0  0  0  0  0  0  0  0  0
  -13.2180  -24.8070   42.6490 C   0  0  0  0  0  0  0  0  0  0  0  0
  -13.6290  -24.0710   41.7430 O   0  0  0  0  0  0  0  0  0  0  0  0
  -14.2790  -27.1390   42.5930 C   0  0  0  0  0  0  0  0  0  0  0  0
  -14.6530  -27.1220   43.9950 C   0  0  0  0  0  0  0  0  0  0  0  0
  -14.2410  -27.9530   45.0000 C   0  0  0  0  0  0  0  0  0  0  0  0
  -15.4120  -26.0910   44.5950 C   0  0  0  0  0  0  0  0  0  0  0  0
  -14.7680  -27.5220   46.1890 N   0  0  0  0  0  0  0  0  0  0  0  0
  -15.4880  -26.3730   45.9660 C   0  0  0  0  0  0  0  0  0  0  0  0
  -16.0650  -24.9560   44.0930 C   0  0  0  0  0  0  0  0  0  0  0  0
  -16.2000  -25.5610   46.8460 C   0  0  0  0  0  0  0  0  0  0  0  0
  -16.7420  -24.1620   44.9640 C   0  0  0  0  0  0  0  0  0  0  0  0
  -16.8490  -24.4830   46.3040 C   0  0  0  0  0  0  0  0  0  0  0  0
  -12.8520  -24.3220   43.8480 N   0  0  0  0  0  0  0  0  0  0  0  0
  -12.7430  -22.8860   44.1180 C   0  0  2  0  0  0  0  0  0  0  0  0
  -11.8140  -22.2370   43.0960 C   0  0  0  0  0  0  0  0  0  0  0  0
  -12.2200  -21.3960   42.2830 O   0  0  0  0  0  0  0  0  0  0  0  0
  -12.1600  -22.6110   45.5150 C   0  0  0  0  0  0  0  0  0  0  0  0
  -12.9690  -23.0630   46.7380 C   0  0  0  0  0  0  0  0  0  0  0  0
  -12.7090  -24.5230   47.1000 C   0  0  0  0  0  0  0  0  0  0  0  0
  -11.9320  -25.2040   46.4320 O   0  0  0  0  0  0  0  0  0  0  0  0
  -13.3080  -24.9880   48.1940 N   0  0  0  0  0  0  0  0  0  0  0  0
  -10.5580  -22.6760   43.1180 N   0  0  0  0  0  0  0  0  0  0  0  0
   -9.4680  -21.9930   42.4550 C   0  0  0  0  0  0  0  0  0  0  0  0
   -8.5360  -21.3870   43.4830 C   0  0  0  0  0  0  0  0  0  0  0  0
   -8.5300  -20.1720   43.6920 O   0  0  0  0  0  0  0  0  0  0  0  0
  -21.3310  -25.6110   25.6680 N   0  0  0  0  0  0  0  0  0  0  0  0
  -20.9860  -24.3110   25.1050 C   0  0  2  0  0  0  0  0  0  0  0  0
  -21.0110  -24.4500   23.5870 C   0  0  0  0  0  0  0  0  0  0  0  0
  -20.4360  -25.3990   23.0420 O   0  0  0  0  0  0  0  0  0  0  0  0
  -19.6120  -23.8350   25.5890 C   0  0  2  0  0  0  0  0  0  0  0  0
  -18.6110  -24.7710   25.1930 O   0  0  0  0  0  0  0  0  0  0  0  0
  -19.5890  -23.7390   27.1270 C   0  0  0  0  0  0  0  0  0  0  0  0
  -19.7420  -28.1800   22.4560 N   0  0  0  0  0  0  0  0  0  0  0  0
  -18.8200  -28.9980   23.2250 C   0  0  2  0  0  0  0  0  0  0  0  0
  -19.1950  -28.9590   24.7010 C   0  0  0  0  0  0  0  0  0  0  0  0
  -19.6550  -27.9270   25.1990 O   0  0  0  0  0  0  0  0  0  0  0  0
  -17.3660  -28.5430   23.0330 C   0  0  0  0  0  0  0  0  0  0  0  0
  -16.9380  -28.4820   21.5770 C   0  0  0  0  0  0  0  0  0  0  0  0
  -16.0450  -27.2950   21.3330 C   0  0  0  0  0  0  0  0  0  0  0  0
  -15.4560  -27.2470   19.9930 N   0  0  0  0  0  0  0  0  0  0  0  0
  -14.8150  -28.2290   19.3650 C   0  0  0  0  0  0  0  0  0  0  0  0
  -14.5920  -29.4040   19.9400 N   0  0  0  0  0  0  0  0  0  0  0  0
  -14.3500  -28.0070   18.1460 N   0  0  0  0  0  0  0  0  0  0  0  0
  -19.3160  -29.1560   28.9370 N   0  0  0  0  0  0  0  0  0  0  0  0
  -18.6720  -28.4930   30.0530 C   0  0  0  0  0  0  0  0  0  0  0  0
  -18.6970  -26.9910   29.8850 C   0  0  0  0  0  0  0  0  0  0  0  0
  -18.6430  -26.4990   28.7530 O   0  0  0  0  0  0  0  0  0  0  0  0
  -18.7700  -26.2490   30.9860 N   0  0  0  0  0  0  0  0  0  0  0  0
  -18.7160  -24.8030   30.8870 C   0  0  0  0  0  0  0  0  0  0  0  0
  -19.2130  -24.1200   32.1430 C   0  0  0  0  0  0  0  0  0  0  0  0
  -19.9120  -24.7050   32.9810 O   0  0  0  0  0  0  0  0  0  0  0  0
  -18.8260  -22.8500   32.2600 N   0  0  0  0  0  0  0  0  0  0  0  0
  -19.3370  -21.9620   33.2830 C   0  0  0  0  0  0  0  0  0  0  0  0
  -18.7570  -22.1730   34.6670 C   0  0  0  0  0  0  0  0  0  0  0  0
  -17.7400  -22.8430   34.8680 O   0  0  0  0  0  0  0  0  0  0  0  0
  -19.1750  -23.5490   38.6710 N   0  0  0  0  0  0  0  0  0  0  0  0
  -19.8960  -24.5990   39.3750 C   0  0  2  0  0  0  0  0  0  0  0  0
  -21.2500  -24.0730   39.8220 C   0  0  0  0  0  0  0  0  0  0  0  0
  -22.1940  -24.8520   40.0100 O   0  0  0  0  0  0  0  0  0  0  0  0
  -19.0780  -25.1090   40.5700 C   0  0  2  0  0  0  0  0  0  0  0  0
  -17.7130  -25.5880   40.0880 C   0  0  0  0  0  0  0  0  0  0  0  0
  -19.7800  -26.2790   41.2210 C   0  0  0  0  0  0  0  0  0  0  0  0
  -17.7700  -26.6870   39.0710 C   0  0  0  0  0  0  0  0  0  0  0  0
  2  1  1  1
  3  2  1  0
  4  3  2  0
  5  2  1  0
  6  5  1  0
  7  3  1  0
  8  7  1  0
  9  8  1  0
 10  9  2  0
 11  9  1  0
 12 11  1  0
 13 12  1  0
 14 13  2  0
 15 13  1  0
 16 15  1  0
 17 16  1  0
 18 17  2  0
 16 19  1  1
 20 19  1  0
 21 20  2  0
 22 20  1  0
 24 23  1  6
 25 24  1  0
 26 25  2  0
 27 24  1  0
 28 27  1  0
 29 28  1  0
 30 29  2  0
 31 29  1  0
 32 25  1  0
 33 32  1  1
 34 33  1  0
 35 34  2  0
 36 33  1  0
 37 36  1  0
 36 38  1  1
 39 37  1  0
 41 40  1  1
 42 41  1  0
 43 42  2  0
 44 41  1  0
 45 44  1  0
 44 46  1  6
 47 45  1  0
 48 42  1  0
 49 48  1  0
 50 49  1  0
 51 50  2  0
 49 52  1  6
 53 52  1  0
 54 53  2  0
 55 53  1  0
 56 50  1  0
 57 56  1  0
 58 57  1  0
 59 58  2  0
 57 60  1  1
 61 60  1  0
 62 61  1  0
 63 62  1  0
 64 58  1  0
 65 64  1  0
 66 65  1  0
 67 66  2  0
 65 68  1  1
 69 68  1  0
 70 69  2  0
 71 69  1  0
 72 70  1  0
 73 72  1  0
 73 71  2  0
 74 71  1  0
 75 73  1  0
 76 74  2  0
 77 76  1  0
 77 75  2  0
 78 66  1  0
 79 78  1  0
 80 79  1  0
 81 80  2  0
 79 82  1  1
 83 82  1  0
 84 83  1  0
 85 84  2  0
 86 84  1  0
 87 80  1  0
 88 87  1  0
 89 88  1  0
 90 89  2  0
 92 91  1  1
 93 92  1  0
 94 93  2  0
 95 92  1  0
 96 95  1  0
 95 97  1  1
 99 98  1  6
100 99  1  0
101100  2  0
102 99  1  0
103102  1  0
104103  1  0
105104  1  0
106105  1  0
107106  1  0
108106  2  0
110109  1  0
111110  1  0
112111  2  0
113111  1  0
114113  1  0
115114  1  0
116115  2  0
117115  1  0
118117  1  0
119118  1  0
120119  2  0
122121  1  1
123122  1  0
124123  2  0
125122  1  0
126125  1  0
125127  1  6
128126  1  0
M  END
$$$$
