
     RDKit          3D

 79 77  0  0  0  0  0  0  0  0999 V2000
  -29.2180  -16.2270   27.0760 N   0  0  0  0  0  0  0  0  0  0  0  0
  -29.7390  -16.3650   25.7200 C   0  0  2  0  0  0  0  0  0  0  0  0
  -28.6940  -17.0830   24.8770 C   0  0  0  0  0  0  0  0  0  0  0  0
  -27.5040  -16.7610   24.9460 O   0  0  0  0  0  0  0  0  0  0  0  0
  -30.1200  -15.0180   25.0830 C   0  0  0  0  0  0  0  0  0  0  0  0
  -29.0850  -13.9430   25.3010 C   0  0  0  0  0  0  0  0  0  0  0  0
  -28.0960  -14.1500   25.9990 O   0  0  0  0  0  0  0  0  0  0  0  0
  -29.3220  -12.7710   24.7150 N   0  0  0  0  0  0  0  0  0  0  0  0
  -29.1500  -18.0640   24.0920 N   0  0  0  0  0  0  0  0  0  0  0  0
  -28.2600  -18.8830   23.2770 C   0  0  2  0  0  0  0  0  0  0  0  0
  -27.5050  -18.0860   22.2280 C   0  0  0  0  0  0  0  0  0  0  0  0
  -26.5030  -18.5840   21.7070 O   0  0  0  0  0  0  0  0  0  0  0  0
  -29.0440  -20.0130   22.5920 C   0  0  0  0  0  0  0  0  0  0  0  0
  -29.2770  -21.3160   23.3720 C   0  0  0  0  0  0  0  0  0  0  0  0
  -30.1720  -21.0860   24.5670 C   0  0  0  0  0  0  0  0  0  0  0  0
  -29.8590  -22.4130   22.4850 C   0  0  0  0  0  0  0  0  0  0  0  0
  -27.9480  -16.8730   21.9060 N   0  0  0  0  0  0  0  0  0  0  0  0
  -27.2590  -16.1000   20.8800 C   0  0  2  0  0  0  0  0  0  0  0  0
  -25.8150  -15.8310   21.2760 C   0  0  0  0  0  0  0  0  0  0  0  0
  -24.9170  -15.8510   20.4260 O   0  0  0  0  0  0  0  0  0  0  0  0
  -27.9990  -14.7900   20.6240 C   0  0  2  0  0  0  0  0  0  0  0  0
  -28.0660  -14.0360   21.8410 O   0  0  0  0  0  0  0  0  0  0  0  0
  -29.4060  -15.0720   20.1290 C   0  0  0  0  0  0  0  0  0  0  0  0
  -25.5720  -15.5880   22.5620 N   0  0  0  0  0  0  0  0  0  0  0  0
  -24.2390  -15.2840   23.0630 C   0  0  2  0  0  0  0  0  0  0  0  0
  -23.5030  -16.5810   23.3680 C   0  0  0  0  0  0  0  0  0  0  0  0
  -24.0120  -17.4280   24.1090 O   0  0  0  0  0  0  0  0  0  0  0  0
  -24.3280  -14.4130   24.3150 C   0  0  0  0  0  0  0  0  0  0  0  0
  -22.9740  -13.9410   24.7990 C   0  0  0  0  0  0  0  0  0  0  0  0
  -21.9380  -14.5140   24.4610 O   0  0  0  0  0  0  0  0  0  0  0  0
  -22.9760  -12.8930   25.6110 N   0  0  0  0  0  0  0  0  0  0  0  0
  -22.2970  -16.7220   22.8110 N   0  0  0  0  0  0  0  0  0  0  0  0
  -21.5460  -17.9660   22.9420 C   0  0  2  0  0  0  0  0  0  0  0  0
  -20.9000  -18.1280   24.3150 C   0  0  0  0  0  0  0  0  0  0  0  0
  -20.6870  -19.2610   24.7610 O   0  0  0  0  0  0  0  0  0  0  0  0
  -20.4910  -18.0570   21.8340 C   0  0  0  0  0  0  0  0  0  0  0  0
  -19.4310  -16.9650   21.9240 C   0  0  0  0  0  0  0  0  0  0  0  0
  -19.0450  -16.5250   23.0050 O   0  0  0  0  0  0  0  0  0  0  0  0
  -18.9420  -16.5330   20.7660 N   0  0  0  0  0  0  0  0  0  0  0  0
  -21.7220  -23.5430   22.9150 N   0  0  0  0  0  0  0  0  0  0  0  0
  -21.7430  -23.5120   21.4550 C   0  0  2  0  0  0  0  0  0  0  0  0
  -20.4640  -22.8890   20.9230 C   0  0  0  0  0  0  0  0  0  0  0  0
  -20.0360  -21.8360   21.4030 O   0  0  0  0  0  0  0  0  0  0  0  0
  -22.9290  -22.6940   20.9530 C   0  0  0  0  0  0  0  0  0  0  0  0
  -23.0510  -22.6240   19.4360 C   0  0  0  0  0  0  0  0  0  0  0  0
  -24.2920  -21.8420   19.0330 C   0  0  0  0  0  0  0  0  0  0  0  0
  -24.1970  -20.4390   19.4470 N   0  0  0  0  0  0  0  0  0  0  0  0
  -23.5600  -19.4910   18.7640 C   0  0  0  0  0  0  0  0  0  0  0  0
  -22.9280  -19.7900   17.6350 N   0  0  0  0  0  0  0  0  0  0  0  0
  -23.5360  -18.2470   19.2220 N   0  0  0  0  0  0  0  0  0  0  0  0
  -19.8670  -23.5160   19.9120 N   0  0  0  0  0  0  0  0  0  0  0  0
  -18.7050  -22.9180   19.2690 C   0  0  2  0  0  0  0  0  0  0  0  0
  -19.0730  -21.6060   18.6140 C   0  0  0  0  0  0  0  0  0  0  0  0
  -19.8950  -21.5640   17.6950 O   0  0  0  0  0  0  0  0  0  0  0  0
  -18.1010  -23.8630   18.2430 C   0  0  0  0  0  0  0  0  0  0  0  0
  -17.4150  -25.0060   18.8930 C   0  0  0  0  0  0  0  0  0  0  0  0
  -17.1930  -24.8670   20.1110 O   0  0  0  0  0  0  0  0  0  0  0  0
  -17.0650  -25.9940   18.2120 O   0  0  0  0  0  0  0  0  0  0  0  0
  -18.4610  -20.5380   19.0930 N   0  0  0  0  0  0  0  0  0  0  0  0
  -18.7030  -19.2340   18.5310 C   0  0  0  0  0  0  0  0  0  0  0  0
  -18.1210  -19.1010   17.1410 C   0  0  0  0  0  0  0  0  0  0  0  0
  -17.4220  -19.9730   16.6250 O   0  0  0  0  0  0  0  0  0  0  0  0
  -18.4190  -17.9670   16.5260 N   0  0  0  0  0  0  0  0  0  0  0  0
  -17.9430  -17.6820   15.1920 C   0  0  0  0  0  0  0  0  0  0  0  0
  -18.8030  -18.3290   14.1220 C   0  0  0  0  0  0  0  0  0  0  0  0
  -19.6270  -19.2020   14.3840 O   0  0  0  0  0  0  0  0  0  0  0  0
  -18.6090  -17.8570   12.8890 N   0  0  0  0  0  0  0  0  0  0  0  0
  -19.2790  -18.3880   11.7040 C   0  0  2  0  0  0  0  0  0  0  0  0
  -20.7690  -18.0780   11.6630 C   0  0  0  0  0  0  0  0  0  0  0  0
  -21.5790  -18.8140   12.2390 O   0  0  0  0  0  0  0  0  0  0  0  0
  -19.0860  -19.8960   11.6110 C   0  0  0  0  0  0  0  0  0  0  0  0
  -21.1400  -16.9960   10.9820 N   0  0  0  0  0  0  0  0  0  0  0  0
  -22.5510  -16.7350   10.7400 C   0  0  2  0  0  0  0  0  0  0  0  0
  -23.0260  -17.5250    9.5330 C   0  0  0  0  0  0  0  0  0  0  0  0
  -24.1370  -18.0680    9.5280 O   0  0  0  0  0  0  0  0  0  0  0  0
  -22.7610  -15.2370   10.5260 C   0  0  0  0  0  0  0  0  0  0  0  0
  -24.2270  -14.8350   10.4710 C   0  0  0  0  0  0  0  0  0  0  0  0
  -25.1160  -15.6510   10.2300 O   0  0  0  0  0  0  0  0  0  0  0  0
  -24.4790  -13.5530   10.6910 N   0  0  0  0  0  0  0  0  0  0  0  0
  2  1  1  1
  3  2  1  0
  4  3  2  0
  5  2  1  0
  6  5  1  0
  7  6  2  0
  8  6  1  0
  9  3  1  0
 10  9  1  0
 11 10  1  0
 12 11  2  0
 10 13  1  6
 14 13  1  0
 15 14  1  0
 16 14  1  0
 17 11  1  0
 18 17  1  1
 19 18  1  0
 20 19  2  0
 21 18  1  0
 22 21  1  0
 21 23  1  1
 24 19  1  0
 25 24  1  0
 26 25  1  0
 27 26  2  0
 25 28  1  1
 29 28  1  0
 30 29  2  0
 31 29  1  0
 32 26  1  0
 33 32  1  0
 34 33  1  0
 35 34  2  0
 33 36  1  6
 37 36  1  0
 38 37  2  0
 39 37  1  0
 41 40  1  1
 42 41  1  0
 43 42  2  0
 44 41  1  0
 45 44  1  0
 46 45  1  0
 47 46  1  0
 48 47  1  0
 49 48  1  0
 50 48  2  0
 51 42  1  0
 52 51  1  0
 53 52  1  0
 54 53  2  0
 52 55  1  6
 56 55  1  0
 57 56  2  0
 58 56  1  0
 59 53  1  0
 60 59  1  0
 61 60  1  0
 62 61  2  0
 63 61  1  0
 64 63  1  0
 65 64  1  0
 66 65  2  0
 67 65  1  0
 68 67  1  0
 69 68  1  0
 70 69  2  0
 68 71  1  1
 72 69  1  0
 73 72  1  0
 74 73  1  0
 75 74  2  0
 73 76  1  6
 77 76  1  0
 78 77  2  0
 79 77  1  0
M  END
$$$$
