
     RDKit          3D

149144  0  0  0  0  0  0  0  0999 V2000
   41.0180   11.9430   12.6520 N   0  0  0  0  0  0  0  0  0  0  0  0
   42.2540   12.7050   12.7620 C   0  0  2  0  0  0  0  0  0  0  0  0
   42.2610   13.8790   11.7890 C   0  0  0  0  0  0  0  0  0  0  0  0
   41.6800   13.8220   10.7020 O   0  0  0  0  0  0  0  0  0  0  0  0
   43.4600   11.8010   12.4990 C   0  0  0  0  0  0  0  0  0  0  0  0
   44.5910   12.5630   12.1150 O   0  0  0  0  0  0  0  0  0  0  0  0
   42.9370   14.9560   12.1960 N   0  0  0  0  0  0  0  0  0  0  0  0
   43.0500   16.1340   11.3450 C   0  0  2  0  0  0  0  0  0  0  0  0
   44.0250   15.9280   10.1920 C   0  0  0  0  0  0  0  0  0  0  0  0
   43.9390   16.6490    9.1920 O   0  0  0  0  0  0  0  0  0  0  0  0
   43.4800   17.3410   12.1790 C   0  0  0  0  0  0  0  0  0  0  0  0
   44.6320   17.0440   12.9480 O   0  0  0  0  0  0  0  0  0  0  0  0
   44.9390   14.9800   10.3040 N   0  0  0  0  0  0  0  0  0  0  0  0
   45.8890   14.7200    9.2410 C   0  0  0  0  0  0  0  0  0  0  0  0
   47.1980   14.1930    9.7910 C   0  0  0  0  0  0  0  0  0  0  0  0
   47.3550   13.9650   10.9880 O   0  0  0  0  0  0  0  0  0  0  0  0
   48.1400   14.0050    8.8750 N   0  0  0  0  0  0  0  0  0  0  0  0
   49.4770   13.5350    9.1770 C   0  0  0  0  0  0  0  0  0  0  0  0
   49.7840   12.2530    8.4320 C   0  0  0  0  0  0  0  0  0  0  0  0
   49.0450   11.8210    7.5430 O   0  0  0  0  0  0  0  0  0  0  0  0
   50.8980   11.6340    8.8120 N   0  0  0  0  0  0  0  0  0  0  0  0
   51.2700   10.3470    8.2450 C   0  0  2  0  0  0  0  0  0  0  0  0
   50.1980    9.3030    8.5430 C   0  0  0  0  0  0  0  0  0  0  0  0
   49.4010    9.4350    9.4770 O   0  0  0  0  0  0  0  0  0  0  0  0
   52.6210    9.8800    8.7840 C   0  0  0  0  0  0  0  0  0  0  0  0
   53.7620   10.7680    8.3390 C   0  0  0  0  0  0  0  0  0  0  0  0
   53.5570   11.5790    7.4100 O   0  0  0  0  0  0  0  0  0  0  0  0
   54.8660   10.6530    8.9110 O   0  0  0  0  0  0  0  0  0  0  0  0
   50.4890    6.6240    9.8920 N   0  0  0  0  0  0  0  0  0  0  0  0
   50.6650    6.0190   11.2070 C   0  0  2  0  0  0  0  0  0  0  0  0
   49.7070    6.6260   12.2250 C   0  0  0  0  0  0  0  0  0  0  0  0
   49.1810    5.9170   13.0920 O   0  0  0  0  0  0  0  0  0  0  0  0
   52.1110    6.1980   11.6710 C   0  0  0  0  0  0  0  0  0  0  0  0
   53.0890    5.2030   11.0720 C   0  0  0  0  0  0  0  0  0  0  0  0
   53.3850    5.4880    9.6110 C   0  0  0  0  0  0  0  0  0  0  0  0
   53.0890    6.6110    9.1510 O   0  0  0  0  0  0  0  0  0  0  0  0
   53.9160    4.5910    8.9230 O   0  0  0  0  0  0  0  0  0  0  0  0
   49.4650    7.9380   12.1380 N   0  0  0  0  0  0  0  0  0  0  0  0
   48.6410    8.6310   13.1250 C   0  0  2  0  0  0  0  0  0  0  0  0
   47.2400    8.9550   12.6250 C   0  0  0  0  0  0  0  0  0  0  0  0
   46.3860    9.3480   13.4370 O   0  0  0  0  0  0  0  0  0  0  0  0
   49.3370    9.9260   13.6030 C   0  0  2  0  0  0  0  0  0  0  0  0
   49.1710   11.0510   12.5740 C   0  0  0  0  0  0  0  0  0  0  0  0
   50.8030    9.6610   13.8850 C   0  0  0  0  0  0  0  0  0  0  0  0
   49.6790   12.3960   13.0550 C   0  0  0  0  0  0  0  0  0  0  0  0
   57.1120    4.4510    8.5490 N   0  0  0  0  0  0  0  0  0  0  0  0
   57.8600    5.5550    9.1380 C   0  0  2  0  0  0  0  0  0  0  0  0
   58.2220    5.1970   10.5730 C   0  0  0  0  0  0  0  0  0  0  0  0
   57.3400    4.9140   11.3910 O   0  0  0  0  0  0  0  0  0  0  0  0
   57.0390    6.8400    9.0850 C   0  0  0  0  0  0  0  0  0  0  0  0
   56.8460    7.3460    7.6690 C   0  0  0  0  0  0  0  0  0  0  0  0
   57.8030    7.7370    7.0010 O   0  0  0  0  0  0  0  0  0  0  0  0
   55.6040    7.3320    7.2000 N   0  0  0  0  0  0  0  0  0  0  0  0
   59.5160    5.2090   10.8790 N   0  0  0  0  0  0  0  0  0  0  0  0
   59.9750    4.7200   12.1710 C   0  0  2  0  0  0  0  0  0  0  0  0
   59.6220    5.7010   13.2810 C   0  0  0  0  0  0  0  0  0  0  0  0
   59.7180    6.9200   13.1140 O   0  0  0  0  0  0  0  0  0  0  0  0
   61.4870    4.4960   12.1370 C   0  0  0  0  0  0  0  0  0  0  0  0
   61.9250    3.3350   11.2600 C   0  0  0  0  0  0  0  0  0  0  0  0
   63.6850    2.9560   11.3960 S   0  0  0  0  0  0  0  0  0  0  0  0
   64.4220    4.4920   10.8380 C   0  0  0  0  0  0  0  0  0  0  0  0
   59.2100    5.1520   14.4250 N   0  0  0  0  0  0  0  0  0  0  0  0
   59.0230    5.9290   15.6420 C   0  0  2  0  0  0  0  0  0  0  0  0
   60.3060    6.0220   16.4550 C   0  0  0  0  0  0  0  0  0  0  0  0
   60.4490    6.9450   17.2650 O   0  0  0  0  0  0  0  0  0  0  0  0
   57.9030    5.3170   16.4940 C   0  0  0  0  0  0  0  0  0  0  0  0
   58.1290    3.8880   16.8560 C   0  0  0  0  0  0  0  0  0  0  0  0
   57.7330    2.7870   16.1550 C   0  0  0  0  0  0  0  0  0  0  0  0
   58.7630    3.4030   18.0430 C   0  0  0  0  0  0  0  0  0  0  0  0
   58.1120    1.6440   16.8180 N   0  0  0  0  0  0  0  0  0  0  0  0
   58.7410    1.9960   17.9840 C   0  0  0  0  0  0  0  0  0  0  0  0
   59.3550    4.0220   19.1470 C   0  0  0  0  0  0  0  0  0  0  0  0
   59.2910    1.1990   18.9850 C   0  0  0  0  0  0  0  0  0  0  0  0
   59.8990    3.2310   20.1390 C   0  0  0  0  0  0  0  0  0  0  0  0
   59.8650    1.8340   20.0520 C   0  0  0  0  0  0  0  0  0  0  0  0
   61.2360    5.0840   16.2540 N   0  0  0  0  0  0  0  0  0  0  0  0
   62.4850    5.0910   17.0040 C   0  0  2  0  0  0  0  0  0  0  0  0
   63.3530    6.2830   16.6210 C   0  0  0  0  0  0  0  0  0  0  0  0
   64.1630    6.7460   17.4330 O   0  0  0  0  0  0  0  0  0  0  0  0
   63.2500    3.7880   16.7680 C   0  0  0  0  0  0  0  0  0  0  0  0
   62.4330    2.5180   16.9790 C   0  0  0  0  0  0  0  0  0  0  0  0
   61.7600    2.0300   15.7100 C   0  0  0  0  0  0  0  0  0  0  0  0
   61.0030    2.7630   15.0740 O   0  0  0  0  0  0  0  0  0  0  0  0
   62.0370    0.7860   15.3350 N   0  0  0  0  0  0  0  0  0  0  0  0
   63.2000    6.7880   15.4010 N   0  0  0  0  0  0  0  0  0  0  0  0
   64.0180    7.8820   14.8930 C   0  0  2  0  0  0  0  0  0  0  0  0
   63.3860    8.3660   13.5950 C   0  0  0  0  0  0  0  0  0  0  0  0
   62.4400    7.7620   13.0810 O   0  0  0  0  0  0  0  0  0  0  0  0
   65.4710    7.4540   14.6710 C   0  0  0  0  0  0  0  0  0  0  0  0
   65.6670    6.4510   13.5440 C   0  0  0  0  0  0  0  0  0  0  0  0
   67.1130    6.0160   13.4010 C   0  0  0  0  0  0  0  0  0  0  0  0
   67.9810    6.6010   14.0840 O   0  0  0  0  0  0  0  0  0  0  0  0
   67.3820    5.0920   12.6050 O   0  0  0  0  0  0  0  0  0  0  0  0
   63.9210    9.4650   13.0710 N   0  0  0  0  0  0  0  0  0  0  0  0
   63.4240   10.0390   11.8240 C   0  0  2  0  0  0  0  0  0  0  0  0
   63.9790    9.2080   10.6720 C   0  0  0  0  0  0  0  0  0  0  0  0
   65.1850    9.2120   10.4140 O   0  0  0  0  0  0  0  0  0  0  0  0
   63.8230   11.5130   11.6900 C   0  0  0  0  0  0  0  0  0  0  0  0
   63.3670   12.0710   10.3500 C   0  0  0  0  0  0  0  0  0  0  0  0
   63.2510   12.3240   12.8450 C   0  0  0  0  0  0  0  0  0  0  0  0
   43.6040   14.3990   20.8780 N   0  0  0  0  0  0  0  0  0  0  0  0
   43.9280   15.8160   20.8020 C   0  0  2  0  0  0  0  0  0  0  0  0
   42.6350   16.6020   20.6480 C   0  0  0  0  0  0  0  0  0  0  0  0
   41.6990   16.1470   19.9830 O   0  0  0  0  0  0  0  0  0  0  0  0
   44.8770   16.1000   19.6350 C   0  0  0  0  0  0  0  0  0  0  0  0
   46.3410   15.7270   19.8840 C   0  0  0  0  0  0  0  0  0  0  0  0
   47.1680   15.9450   18.6260 C   0  0  0  0  0  0  0  0  0  0  0  0
   46.9270   16.5160   21.0470 C   0  0  0  0  0  0  0  0  0  0  0  0
   40.5260   20.0170   19.5000 N   0  0  0  0  0  0  0  0  0  0  0  0
   40.5830   21.0900   18.5190 C   0  0  2  0  0  0  0  0  0  0  0  0
   40.6770   22.4470   19.2060 C   0  0  0  0  0  0  0  0  0  0  0  0
   39.9750   22.7210   20.1830 O   0  0  0  0  0  0  0  0  0  0  0  0
   39.3530   21.0440   17.6130 C   0  0  0  0  0  0  0  0  0  0  0  0
   39.4930   20.0330   16.4900 C   0  0  0  0  0  0  0  0  0  0  0  0
   40.5060   19.3030   16.4660 O   0  0  0  0  0  0  0  0  0  0  0  0
   38.5890   19.9690   15.6300 O   0  0  0  0  0  0  0  0  0  0  0  0
   40.1010   14.3100   18.6290 N   0  0  0  0  0  0  0  0  0  0  0  0
   40.5540   13.4890   17.5200 C   0  0  2  0  0  0  0  0  0  0  0  0
   41.7120   12.6090   17.9650 C   0  0  0  0  0  0  0  0  0  0  0  0
   42.5040   13.0070   18.8260 O   0  0  0  0  0  0  0  0  0  0  0  0
   41.0140   14.3570   16.3400 C   0  0  0  0  0  0  0  0  0  0  0  0
   40.0010   15.3860   15.8790 C   0  0  0  0  0  0  0  0  0  0  0  0
   40.5550   16.2280   14.7390 C   0  0  0  0  0  0  0  0  0  0  0  0
   39.6330   17.2910   14.3490 N   0  0  0  0  0  0  0  0  0  0  0  0
   38.7140   17.1780   13.3940 C   0  0  0  0  0  0  0  0  0  0  0  0
   38.5890   16.0500   12.7080 N   0  0  0  0  0  0  0  0  0  0  0  0
   37.9200   18.2030   13.1190 N   0  0  0  0  0  0  0  0  0  0  0  0
   45.3240   10.8000   18.0650 N   0  0  0  0  0  0  0  0  0  0  0  0
   46.6610   11.2470   17.7000 C   0  0  2  0  0  0  0  0  0  0  0  0
   47.7130   10.2830   18.2300 C   0  0  0  0  0  0  0  0  0  0  0  0
   47.4410    9.0890   18.3970 O   0  0  0  0  0  0  0  0  0  0  0  0
   46.9120   12.6630   18.2230 C   0  0  0  0  0  0  0  0  0  0  0  0
   48.2050   13.1160   17.8620 O   0  0  0  0  0  0  0  0  0  0  0  0
   48.9120   10.7920   18.5010 N   0  0  0  0  0  0  0  0  0  0  0  0
   50.0060    9.9450   18.9250 C   0  0  0  0  0  0  0  0  0  0  0  0
   51.2390   10.1440   18.0720 C   0  0  0  0  0  0  0  0  0  0  0  0
   51.4330   11.2130   17.4850 O   0  0  0  0  0  0  0  0  0  0  0  0
   52.0820    9.1130   17.9970 N   0  0  0  0  0  0  0  0  0  0  0  0
   53.3000    9.1300   17.2190 C   0  0  0  0  0  0  0  0  0  0  0  0
   54.5570    9.1340   18.0630 C   0  0  0  0  0  0  0  0  0  0  0  0
   55.5750    8.5690   17.6450 O   0  0  0  0  0  0  0  0  0  0  0  0
   54.5110    9.7610   19.2350 N   0  0  0  0  0  0  0  0  0  0  0  0
   55.6070    9.6760   20.1970 C   0  0  2  0  0  0  0  0  0  0  0  0
   55.3100    8.5530   21.1840 C   0  0  0  0  0  0  0  0  0  0  0  0
   54.4780    8.7060   22.0810 O   0  0  0  0  0  0  0  0  0  0  0  0
   55.7870   11.0080   20.9190 C   0  0  0  0  0  0  0  0  0  0  0  0
   57.0000   11.0240   21.8340 C   0  0  0  0  0  0  0  0  0  0  0  0
   57.6440    9.9660   21.9940 O   0  0  0  0  0  0  0  0  0  0  0  0
   57.3050   12.0950   22.4000 O   0  0  0  0  0  0  0  0  0  0  0  0
  2  1  1  6
  3  2  1  0
  4  3  2  0
  5  2  1  0
  6  5  1  0
  7  3  1  0
  8  7  1  0
  9  8  1  0
 10  9  2  0
  8 11  1  1
 12 11  1  0
 13  9  1  0
 14 13  1  0
 15 14  1  0
 16 15  2  0
 17 15  1  0
 18 17  1  0
 19 18  1  0
 20 19  2  0
 21 19  1  0
 22 21  1  0
 23 22  1  0
 24 23  2  0
 22 25  1  1
 26 25  1  0
 27 26  2  0
 28 26  1  0
 30 29  1  6
 31 30  1  0
 32 31  2  0
 33 30  1  0
 34 33  1  0
 35 34  1  0
 36 35  2  0
 37 35  1  0
 38 31  1  0
 39 38  1  6
 40 39  1  0
 41 40  2  0
 42 39  1  0
 43 42  1  0
 42 44  1  6
 45 43  1  0
 47 46  1  1
 48 47  1  0
 49 48  2  0
 50 47  1  0
 51 50  1  0
 52 51  2  0
 53 51  1  0
 54 48  1  0
 55 54  1  0
 56 55  1  0
 57 56  2  0
 55 58  1  6
 59 58  1  0
 60 59  1  0
 61 60  1  0
 62 56  1  0
 63 62  1  0
 64 63  1  0
 65 64  2  0
 63 66  1  1
 67 66  1  0
 68 67  2  0
 69 67  1  0
 70 68  1  0
 71 70  1  0
 71 69  2  0
 72 69  1  0
 73 71  1  0
 74 72  2  0
 75 74  1  0
 75 73  2  0
 76 64  1  0
 77 76  1  0
 78 77  1  0
 79 78  2  0
 77 80  1  6
 81 80  1  0
 82 81  1  0
 83 82  2  0
 84 82  1  0
 85 78  1  0
 86 85  1  0
 87 86  1  0
 88 87  2  0
 86 89  1  6
 90 89  1  0
 91 90  1  0
 92 91  2  0
 93 91  1  0
 94 87  1  0
 95 94  1  1
 96 95  1  0
 97 96  2  0
 98 95  1  0
 99 98  1  0
100 98  1  0
102101  1  6
103102  1  0
104103  2  0
105102  1  0
106105  1  0
107106  1  0
108106  1  0
110109  1  1
111110  1  0
112111  2  0
113110  1  0
114113  1  0
115114  2  0
116114  1  0
118117  1  1
119118  1  0
120119  2  0
121118  1  0
122121  1  0
123122  1  0
124123  1  0
125124  1  0
126125  1  0
127125  2  0
129128  1  1
130129  1  0
131130  2  0
132129  1  0
133132  1  0
134130  1  0
135134  1  0
136135  1  0
137136  2  0
138136  1  0
139138  1  0
140139  1  0
141140  2  0
142140  1  0
143142  1  0
144143  1  0
145144  2  0
143146  1  1
147146  1  0
148147  2  0
149147  1  0
M  END
$$$$
