
     RDKit          3D

118117  0  0  0  0  0  0  0  0999 V2000
   48.9080   32.7490  177.2210 N   0  0  0  0  0  0  0  0  0  0  0  0
   49.3800   34.0650  177.7350 C   0  0  2  0  0  0  0  0  0  0  0  0
   48.5230   34.4680  178.9320 C   0  0  0  0  0  0  0  0  0  0  0  0
   47.3010   34.5680  178.8170 O   0  0  0  0  0  0  0  0  0  0  0  0
   49.2840   35.1430  176.6500 C   0  0  0  0  0  0  0  0  0  0  0  0
   50.0870   36.3900  176.9710 C   0  0  0  0  0  0  0  0  0  0  0  0
   51.8710   36.0710  176.9660 S   0  0  0  0  0  0  0  0  0  0  0  0
   52.2410   36.2550  175.2220 C   0  0  0  0  0  0  0  0  0  0  0  0
   49.1850   34.6990  180.0730 N   0  0  0  0  0  0  0  0  0  0  0  0
   48.5120   35.0300  181.3200 C   0  0  2  0  0  0  0  0  0  0  0  0
   47.7710   36.3570  181.1760 C   0  0  0  0  0  0  0  0  0  0  0  0
   48.2200   37.2560  180.4610 O   0  0  0  0  0  0  0  0  0  0  0  0
   49.5060   35.0800  182.4880 C   0  0  0  0  0  0  0  0  0  0  0  0
   50.6180   36.1160  182.3800 C   0  0  0  0  0  0  0  0  0  0  0  0
   51.3270   36.3750  183.6930 C   0  0  0  0  0  0  0  0  0  0  0  0
   52.5290   37.2790  183.5390 C   0  0  0  0  0  0  0  0  0  0  0  0
   53.0780   37.6960  184.8510 N   0  0  0  0  0  0  0  0  0  0  0  0
   46.6190   36.4540  181.8550 N   0  0  0  0  0  0  0  0  0  0  0  0
   45.9830   37.7410  182.0700 C   0  0  2  0  0  0  0  0  0  0  0  0
   46.8340   38.5420  183.0500 C   0  0  0  0  0  0  0  0  0  0  0  0
   47.5210   37.9700  183.8970 O   0  0  0  0  0  0  0  0  0  0  0  0
   44.5310   37.5850  182.5470 C   0  0  0  0  0  0  0  0  0  0  0  0
   44.3630   36.9530  183.8990 C   0  0  0  0  0  0  0  0  0  0  0  0
   44.0720   35.6460  184.1670 C   0  0  0  0  0  0  0  0  0  0  0  0
   44.4430   37.6110  185.1800 C   0  0  0  0  0  0  0  0  0  0  0  0
   43.9760   35.4440  185.5190 N   0  0  0  0  0  0  0  0  0  0  0  0
   44.2030   36.6270  186.1670 C   0  0  0  0  0  0  0  0  0  0  0  0
   44.6950   38.9280  185.5890 C   0  0  0  0  0  0  0  0  0  0  0  0
   44.2090   36.9210  187.5320 C   0  0  0  0  0  0  0  0  0  0  0  0
   44.7030   39.2160  186.9380 C   0  0  0  0  0  0  0  0  0  0  0  0
   44.4620   38.2250  187.8940 C   0  0  0  0  0  0  0  0  0  0  0  0
   37.7910   35.4240  179.1720 N   0  0  0  0  0  0  0  0  0  0  0  0
   36.9400   35.1670  180.3240 C   0  0  2  0  0  0  0  0  0  0  0  0
   35.6620   35.9880  180.1780 C   0  0  0  0  0  0  0  0  0  0  0  0
   35.5540   37.0760  180.7390 O   0  0  0  0  0  0  0  0  0  0  0  0
   37.7020   35.4260  181.6290 C   0  0  0  0  0  0  0  0  0  0  0  0
   39.0650   34.7830  181.6960 C   0  0  0  0  0  0  0  0  0  0  0  0
   40.1900   35.4410  181.2150 C   0  0  0  0  0  0  0  0  0  0  0  0
   39.2340   33.5120  182.2290 C   0  0  0  0  0  0  0  0  0  0  0  0
   41.4460   34.8570  181.2650 C   0  0  0  0  0  0  0  0  0  0  0  0
   40.4830   32.9120  182.2840 C   0  0  0  0  0  0  0  0  0  0  0  0
   41.5920   33.5870  181.8010 C   0  0  0  0  0  0  0  0  0  0  0  0
   42.8260   33.0080  181.8550 O   0  0  0  0  0  0  0  0  0  0  0  0
   52.0850   32.8740  196.9570 N   0  0  0  0  0  0  0  0  0  0  0  0
   52.1680   33.8780  195.9130 C   0  0  2  0  0  0  0  0  0  0  0  0
   51.6410   33.2420  194.6280 C   0  0  0  0  0  0  0  0  0  0  0  0
   52.2930   32.3740  194.0510 O   0  0  0  0  0  0  0  0  0  0  0  0
   53.5990   34.4110  195.7810 C   0  0  0  0  0  0  0  0  0  0  0  0
   53.8110   35.3540  194.6140 C   0  0  0  0  0  0  0  0  0  0  0  0
   53.0140   35.3930  193.6790 O   0  0  0  0  0  0  0  0  0  0  0  0
   54.8940   36.1150  194.6530 N   0  0  0  0  0  0  0  0  0  0  0  0
   50.4480   33.6740  194.1970 N   0  0  0  0  0  0  0  0  0  0  0  0
   49.7700   33.0790  193.0530 C   0  0  2  0  0  0  0  0  0  0  0  0
   49.9880   33.9300  191.8020 C   0  0  0  0  0  0  0  0  0  0  0  0
   49.3190   33.7360  190.7890 O   0  0  0  0  0  0  0  0  0  0  0  0
   48.2850   32.8300  193.3340 C   0  0  0  0  0  0  0  0  0  0  0  0
   47.4950   34.1000  193.5700 C   0  0  0  0  0  0  0  0  0  0  0  0
   47.8790   35.1760  193.1120 O   0  0  0  0  0  0  0  0  0  0  0  0
   46.3810   33.9800  194.2760 N   0  0  0  0  0  0  0  0  0  0  0  0
   50.9210   34.8840  191.8900 N   0  0  0  0  0  0  0  0  0  0  0  0
   51.3000   35.6970  190.7470 C   0  0  0  0  0  0  0  0  0  0  0  0
   50.4280   36.9380  190.5810 C   0  0  0  0  0  0  0  0  0  0  0  0
   50.7470   37.7990  189.7680 O   0  0  0  0  0  0  0  0  0  0  0  0
   49.3400   37.0280  191.3590 N   0  0  0  0  0  0  0  0  0  0  0  0
   48.3840   38.1170  191.2150 C   0  0  2  0  0  0  0  0  0  0  0  0
   48.0760   38.7510  192.5690 C   0  0  0  0  0  0  0  0  0  0  0  0
   47.6440   39.9010  192.6340 O   0  0  0  0  0  0  0  0  0  0  0  0
   47.1390   37.6450  190.4460 C   0  0  0  0  0  0  0  0  0  0  0  0
   47.4510   37.2290  189.0460 C   0  0  0  0  0  0  0  0  0  0  0  0
   47.8990   38.1290  188.0830 N   0  0  0  0  0  0  0  0  0  0  0  0
   47.4060   36.0220  188.4400 C   0  0  0  0  0  0  0  0  0  0  0  0
   48.1070   37.4910  186.9490 C   0  0  0  0  0  0  0  0  0  0  0  0
   47.8070   36.1990  187.1380 N   0  0  0  0  0  0  0  0  0  0  0  0
   48.1190   35.0650  199.1090 N   0  0  0  0  0  0  0  0  0  0  0  0
   46.9290   34.3520  199.5450 C   0  0  2  0  0  0  0  0  0  0  0  0
   47.2570   33.5020  200.7710 C   0  0  0  0  0  0  0  0  0  0  0  0
   48.2970   32.8520  200.8190 O   0  0  0  0  0  0  0  0  0  0  0  0
   46.4120   33.4880  198.3900 C   0  0  0  0  0  0  0  0  0  0  0  0
   45.3410   32.4670  198.7460 C   0  0  0  0  0  0  0  0  0  0  0  0
   45.4950   31.1470  198.0180 C   0  0  0  0  0  0  0  0  0  0  0  0
   45.2440   31.2450  196.5290 C   0  0  0  0  0  0  0  0  0  0  0  0
   45.2300   29.9050  195.8980 N   0  0  0  0  0  0  0  0  0  0  0  0
   56.1530   33.9190  192.1680 N   0  0  0  0  0  0  0  0  0  0  0  0
   54.9480   33.1960  191.7950 C   0  0  2  0  0  0  0  0  0  0  0  0
   55.1460   31.6970  192.0210 C   0  0  0  0  0  0  0  0  0  0  0  0
   56.1050   31.1070  191.5220 O   0  0  0  0  0  0  0  0  0  0  0  0
   54.6060   33.4910  190.3300 C   0  0  0  0  0  0  0  0  0  0  0  0
   53.3420   32.8240  189.8000 C   0  0  0  0  0  0  0  0  0  0  0  0
   52.9320   33.3380  188.4390 C   0  0  0  0  0  0  0  0  0  0  0  0
   51.6130   32.7730  187.9600 C   0  0  0  0  0  0  0  0  0  0  0  0
   51.1090   33.5180  186.7830 N   0  0  0  0  0  0  0  0  0  0  0  0
   54.2220   31.1000  192.7810 N   0  0  0  0  0  0  0  0  0  0  0  0
   54.2250   29.6700  193.0370 C   0  0  0  0  0  0  0  0  0  0  0  0
   54.8370   29.3240  194.3920 C   0  0  0  0  0  0  0  0  0  0  0  0
   54.6040   28.2360  194.9100 O   0  0  0  0  0  0  0  0  0  0  0  0
   55.2380   39.2860  190.2780 N   0  0  0  0  0  0  0  0  0  0  0  0
   54.2040   38.6370  189.4850 C   0  0  2  0  0  0  0  0  0  0  0  0
   54.7810   37.3970  188.8000 C   0  0  0  0  0  0  0  0  0  0  0  0
   54.0330   36.5230  188.3720 O   0  0  0  0  0  0  0  0  0  0  0  0
   53.6580   39.5900  188.4200 C   0  0  0  0  0  0  0  0  0  0  0  0
   52.3310   40.6880  189.0010 S   0  0  0  0  0  0  0  0  0  0  0  0
   56.1180   37.3280  188.7220 N   0  0  0  0  0  0  0  0  0  0  0  0
   56.8200   36.3790  187.8650 C   0  0  2  0  0  0  0  0  0  0  0  0
   57.4370   35.2460  188.6900 C   0  0  0  0  0  0  0  0  0  0  0  0
   57.5450   35.3470  189.9120 O   0  0  0  0  0  0  0  0  0  0  0  0
   57.8950   37.0920  187.0330 C   0  0  2  0  0  0  0  0  0  0  0  0
   58.7480   37.7970  187.9400 O   0  0  0  0  0  0  0  0  0  0  0  0
   57.3160   38.0510  186.0160 C   0  0  0  0  0  0  0  0  0  0  0  0
   57.8440   34.1700  187.9990 N   0  0  0  0  0  0  0  0  0  0  0  0
   58.5420   33.0540  188.6240 C   0  0  2  0  0  0  0  0  0  0  0  0
   59.9720   33.4630  188.9670 C   0  0  0  0  0  0  0  0  0  0  0  0
   60.5000   34.4050  188.3810 O   0  0  0  0  0  0  0  0  0  0  0  0
   58.4860   31.8100  187.7340 C   0  0  0  0  0  0  0  0  0  0  0  0
   57.0940   31.3490  187.4760 C   0  0  0  0  0  0  0  0  0  0  0  0
   56.3930   31.7250  186.3440 N   0  0  0  0  0  0  0  0  0  0  0  0
   56.2590   30.5730  188.2030 C   0  0  0  0  0  0  0  0  0  0  0  0
   55.1890   31.1890  186.3770 C   0  0  0  0  0  0  0  0  0  0  0  0
   55.0830   30.4800  187.5090 N   0  0  0  0  0  0  0  0  0  0  0  0
  2  1  1  6
  3  2  1  0
  4  3  2  0
  5  2  1  0
  6  5  1  0
  7  6  1  0
  8  7  1  0
  9  3  1  0
 10  9  1  0
 11 10  1  0
 12 11  2  0
 10 13  1  1
 14 13  1  0
 15 14  1  0
 16 15  1  0
 17 16  1  0
 18 11  1  0
 19 18  1  0
 20 19  1  0
 21 20  2  0
 19 22  1  1
 23 22  1  0
 24 23  2  0
 25 23  1  0
 26 24  1  0
 27 25  2  0
 27 26  1  0
 28 25  1  0
 29 27  1  0
 30 28  2  0
 31 29  2  0
 31 30  1  0
 33 32  1  6
 34 33  1  0
 35 34  2  0
 36 33  1  0
 37 36  1  0
 38 37  2  0
 39 37  1  0
 40 38  1  0
 41 39  2  0
 42 41  1  0
 42 40  2  0
 43 42  1  0
 45 44  1  1
 46 45  1  0
 47 46  2  0
 48 45  1  0
 49 48  1  0
 50 49  2  0
 51 49  1  0
 52 46  1  0
 53 52  1  0
 54 53  1  0
 55 54  2  0
 53 56  1  1
 57 56  1  0
 58 57  2  0
 59 57  1  0
 60 54  1  0
 61 60  1  0
 62 61  1  0
 63 62  2  0
 64 62  1  0
 65 64  1  0
 66 65  1  0
 67 66  2  0
 65 68  1  1
 69 68  1  0
 70 69  1  0
 71 69  2  0
 72 70  2  0
 73 72  1  0
 73 71  1  0
 75 74  1  6
 76 75  1  0
 77 76  2  0
 78 75  1  0
 79 78  1  0
 80 79  1  0
 81 80  1  0
 82 81  1  0
 84 83  1  6
 85 84  1  0
 86 85  2  0
 87 84  1  0
 88 87  1  0
 89 88  1  0
 90 89  1  0
 91 90  1  0
 92 85  1  0
 93 92  1  0
 94 93  1  0
 95 94  2  0
 97 96  1  6
 98 97  1  0
 99 98  2  0
100 97  1  0
101100  1  0
102 98  1  0
103102  1  1
104103  1  0
105104  2  0
106103  1  0
107106  1  0
106108  1  6
109104  1  0
110109  1  0
111110  1  0
112111  2  0
110113  1  6
114113  1  0
115114  1  0
116114  2  0
117115  2  0
118117  1  0
118116  1  0
M  END
$$$$
