
     RDKit          3D

131125  0  0  0  0  0  0  0  0999 V2000
   67.0580  -20.3140   49.0490 N   0  0  0  0  0  0  0  0  0  0  0  0
   67.7910  -19.0870   49.4510 C   0  0  2  0  0  0  0  0  0  0  0  0
   69.2570  -19.4420   49.6800 C   0  0  0  0  0  0  0  0  0  0  0  0
   70.0060  -18.5580   49.9070 O   0  0  0  0  0  0  0  0  0  0  0  0
   67.1980  -18.4650   50.7130 C   0  0  0  0  0  0  0  0  0  0  0  0
   68.0660  -17.3620   51.2910 C   0  0  0  0  0  0  0  0  0  0  0  0
   67.6120  -15.9550   51.0710 C   0  0  0  0  0  0  0  0  0  0  0  0
   68.7280  -15.0130   51.4540 C   0  0  0  0  0  0  0  0  0  0  0  0
   68.3930  -13.5750   51.2620 N   0  0  0  0  0  0  0  0  0  0  0  0
   69.6470  -20.7080   49.6200 N   0  0  0  0  0  0  0  0  0  0  0  0
   71.0500  -21.1130   49.8010 C   0  0  0  0  0  0  0  0  0  0  0  0
   71.7850  -20.9730   48.4810 C   0  0  0  0  0  0  0  0  0  0  0  0
   73.0260  -21.1550   48.4590 O   0  0  0  0  0  0  0  0  0  0  0  0
   74.6220  -18.5350   47.9360 N   0  0  0  0  0  0  0  0  0  0  0  0
   75.8860  -18.9250   48.5780 C   0  0  2  0  0  0  0  0  0  0  0  0
   76.7090  -19.6470   47.5610 C   0  0  0  0  0  0  0  0  0  0  0  0
   77.7430  -20.1680   47.9740 O   0  0  0  0  0  0  0  0  0  0  0  0
   75.6300  -19.7760   49.8450 C   0  0  0  0  0  0  0  0  0  0  0  0
   75.3120  -18.9360   51.0370 C   0  0  0  0  0  0  0  0  0  0  0  0
   74.0200  -18.7460   51.4920 N   0  0  0  0  0  0  0  0  0  0  0  0
   76.1180  -18.1610   51.7820 C   0  0  0  0  0  0  0  0  0  0  0  0
   74.0450  -17.9400   52.5310 C   0  0  0  0  0  0  0  0  0  0  0  0
   75.3360  -17.5680   52.7490 N   0  0  0  0  0  0  0  0  0  0  0  0
   80.4930  -18.4580   46.3680 N   0  0  0  0  0  0  0  0  0  0  0  0
   81.5230  -18.8140   47.3560 C   0  0  2  0  0  0  0  0  0  0  0  0
   81.8470  -20.2890   47.1430 C   0  0  0  0  0  0  0  0  0  0  0  0
   83.0580  -20.6620   47.1030 O   0  0  0  0  0  0  0  0  0  0  0  0
   81.0000  -18.5430   48.7220 C   0  0  0  0  0  0  0  0  0  0  0  0
   80.7990  -21.1000   46.9890 N   0  0  0  0  0  0  0  0  0  0  0  0
   80.9470  -22.5660   46.8140 C   0  0  2  0  0  0  0  0  0  0  0  0
   81.8360  -22.8130   45.5900 C   0  0  0  0  0  0  0  0  0  0  0  0
   82.8270  -23.5860   45.6920 O   0  0  0  0  0  0  0  0  0  0  0  0
   79.6240  -23.2590   46.6830 C   0  0  0  0  0  0  0  0  0  0  0  0
   85.2810  -21.4690   46.1380 N   0  0  0  0  0  0  0  0  0  0  0  0
   85.8170  -22.5370   47.0620 C   0  0  2  0  0  0  0  0  0  0  0  0
   86.0490  -23.9160   46.3790 C   0  0  0  0  0  0  0  0  0  0  0  0
   86.6510  -24.7740   46.9910 O   0  0  0  0  0  0  0  0  0  0  0  0
   84.8600  -22.6920   48.2510 C   0  0  0  0  0  0  0  0  0  0  0  0
   85.1710  -21.6930   49.3630 C   0  0  0  0  0  0  0  0  0  0  0  0
   84.1020  -21.3790   50.4120 C   0  0  0  0  0  0  0  0  0  0  0  0
   83.3890  -22.3530   50.8440 O   0  0  0  0  0  0  0  0  0  0  0  0
   83.9890  -20.1340   50.8060 O   0  0  0  0  0  0  0  0  0  0  0  0
   64.8070   -7.6030   57.9740 N   0  0  0  0  0  0  0  0  0  0  0  0
   65.0060   -9.0790   57.9990 C   0  0  2  0  0  0  0  0  0  0  0  0
   64.1010   -9.8620   57.0500 C   0  0  0  0  0  0  0  0  0  0  0  0
   64.6220  -10.6640   56.2500 O   0  0  0  0  0  0  0  0  0  0  0  0
   64.6540   -9.5620   59.4110 C   0  0  0  0  0  0  0  0  0  0  0  0
   64.7270  -11.0770   59.6000 C   0  0  0  0  0  0  0  0  0  0  0  0
   65.9400  -11.6440   58.8660 C   0  0  0  0  0  0  0  0  0  0  0  0
   64.7960  -11.4430   61.0780 C   0  0  0  0  0  0  0  0  0  0  0  0
   64.6000   -9.8450   53.4560 N   0  0  0  0  0  0  0  0  0  0  0  0
   65.8360  -10.5780   53.0910 C   0  0  2  0  0  0  0  0  0  0  0  0
   65.5030  -12.0620   52.9280 C   0  0  0  0  0  0  0  0  0  0  0  0
   65.9670  -12.6790   51.9280 O   0  0  0  0  0  0  0  0  0  0  0  0
   66.9890  -10.3320   54.0510 C   0  0  0  0  0  0  0  0  0  0  0  0
   67.9540   -9.3220   53.4690 C   0  0  0  0  0  0  0  0  0  0  0  0
   68.7480   -9.6430   52.5560 O   0  0  0  0  0  0  0  0  0  0  0  0
   67.8110   -8.0780   53.9210 N   0  0  0  0  0  0  0  0  0  0  0  0
   64.6880  -12.5990   53.8260 N   0  0  0  0  0  0  0  0  0  0  0  0
   64.3070  -14.0120   53.7100 C   0  0  2  0  0  0  0  0  0  0  0  0
   63.3370  -14.1540   52.5520 C   0  0  0  0  0  0  0  0  0  0  0  0
   63.4440  -15.0850   51.8450 O   0  0  0  0  0  0  0  0  0  0  0  0
   63.6730  -14.4030   55.0160 C   0  0  0  0  0  0  0  0  0  0  0  0
   64.6600  -14.3980   56.1800 C   0  0  0  0  0  0  0  0  0  0  0  0
   63.9920  -14.7870   57.4750 C   0  0  0  0  0  0  0  0  0  0  0  0
   65.8390  -15.3280   55.9170 C   0  0  0  0  0  0  0  0  0  0  0  0
   74.1040  -24.9480   47.8980 N   0  0  0  0  0  0  0  0  0  0  0  0
   74.6740  -25.9180   48.8410 C   0  0  2  0  0  0  0  0  0  0  0  0
   73.7950  -26.3060   50.0500 C   0  0  0  0  0  0  0  0  0  0  0  0
   74.0330  -27.3700   50.6140 O   0  0  0  0  0  0  0  0  0  0  0  0
   75.9310  -25.2510   49.4420 C   0  0  0  0  0  0  0  0  0  0  0  0
   76.1110  -23.9450   48.6780 C   0  0  0  0  0  0  0  0  0  0  0  0
   74.8510  -23.6880   47.8790 C   0  0  0  0  0  0  0  0  0  0  0  0
   72.8150  -25.4770   50.3970 N   0  0  0  0  0  0  0  0  0  0  0  0
   71.9010  -25.7560   51.5240 C   0  0  2  0  0  0  0  0  0  0  0  0
   71.0960  -27.0210   51.2160 C   0  0  0  0  0  0  0  0  0  0  0  0
   70.5510  -27.6670   52.2060 O   0  0  0  0  0  0  0  0  0  0  0  0
   70.9920  -24.5530   51.8340 C   0  0  0  0  0  0  0  0  0  0  0  0
   70.2650  -24.6040   53.1850 C   0  0  0  0  0  0  0  0  0  0  0  0
   69.2620  -23.4690   53.2490 C   0  0  0  0  0  0  0  0  0  0  0  0
   68.0260  -23.6500   53.1320 O   0  0  0  0  0  0  0  0  0  0  0  0
   69.8060  -22.2590   53.3690 N   0  0  0  0  0  0  0  0  0  0  0  0
   70.9850  -27.3750   49.9520 N   0  0  0  0  0  0  0  0  0  0  0  0
   70.0820  -28.4660   49.5050 C   0  0  2  0  0  0  0  0  0  0  0  0
   70.8350  -29.7980   49.3980 C   0  0  0  0  0  0  0  0  0  0  0  0
   70.1970  -30.7950   49.0890 O   0  0  0  0  0  0  0  0  0  0  0  0
   69.4230  -28.0570   48.1790 C   0  0  0  0  0  0  0  0  0  0  0  0
   68.5190  -26.8120   48.2500 C   0  0  0  0  0  0  0  0  0  0  0  0
   67.2820  -26.9440   47.3620 C   0  0  0  0  0  0  0  0  0  0  0  0
   68.0720  -26.5070   49.6980 C   0  0  0  0  0  0  0  0  0  0  0  0
   72.1280  -29.8230   49.6860 N   0  0  0  0  0  0  0  0  0  0  0  0
   72.9700  -31.0400   49.6000 C   0  0  2  0  0  0  0  0  0  0  0  0
   72.7100  -31.9580   50.8080 C   0  0  0  0  0  0  0  0  0  0  0  0
   72.3790  -31.4250   51.8980 O   0  0  0  0  0  0  0  0  0  0  0  0
   74.4150  -30.6240   49.5410 C   0  0  0  0  0  0  0  0  0  0  0  0
   72.8250  -33.2810   50.6110 N   0  0  0  0  0  0  0  0  0  0  0  0
   72.7590  -34.3530   51.6550 C   0  0  2  0  0  0  0  0  0  0  0  0
   73.9970  -34.2930   52.5450 C   0  0  0  0  0  0  0  0  0  0  0  0
   73.8740  -34.7250   53.7080 O   0  0  0  0  0  0  0  0  0  0  0  0
   72.6690  -35.7490   51.0220 C   0  0  2  0  0  0  0  0  0  0  0  0
   71.4730  -35.7450   50.2430 O   0  0  0  0  0  0  0  0  0  0  0  0
   72.6600  -36.9040   52.0040 C   0  0  0  0  0  0  0  0  0  0  0  0
   75.1360  -33.7940   52.0260 N   0  0  0  0  0  0  0  0  0  0  0  0
   76.4200  -33.6600   52.7780 C   0  0  2  0  0  0  0  0  0  0  0  0
   77.3060  -32.5470   52.2150 C   0  0  0  0  0  0  0  0  0  0  0  0
   76.9570  -31.9230   51.2310 O   0  0  0  0  0  0  0  0  0  0  0  0
   77.1550  -34.9660   52.7650 C   0  0  0  0  0  0  0  0  0  0  0  0
   76.9510  -35.5890   51.5190 O   0  0  0  0  0  0  0  0  0  0  0  0
   78.4500  -32.3390   52.8270 N   0  0  0  0  0  0  0  0  0  0  0  0
   79.4930  -31.4320   52.3230 C   0  0  2  0  0  0  0  0  0  0  0  0
   80.0490  -32.0390   51.0720 C   0  0  0  0  0  0  0  0  0  0  0  0
   80.3580  -31.2470   50.1580 O   0  0  0  0  0  0  0  0  0  0  0  0
   80.7120  -31.3510   53.2160 C   0  0  0  0  0  0  0  0  0  0  0  0
   80.3780  -31.0880   54.6750 C   0  0  0  0  0  0  0  0  0  0  0  0
   81.6660  -30.8510   55.4030 C   0  0  0  0  0  0  0  0  0  0  0  0
   81.9130  -31.5640   56.4160 O   0  0  0  0  0  0  0  0  0  0  0  0
   82.4470  -30.0110   54.8850 O   0  0  0  0  0  0  0  0  0  0  0  0
   80.2130  -33.3680   51.0490 N   0  0  0  0  0  0  0  0  0  0  0  0
   80.6490  -34.0690   49.7970 C   0  0  2  0  0  0  0  0  0  0  0  0
   79.7170  -33.6070   48.6720 C   0  0  0  0  0  0  0  0  0  0  0  0
   80.2370  -33.1030   47.6720 O   0  0  0  0  0  0  0  0  0  0  0  0
   80.7310  -35.5960   49.9620 C   0  0  0  0  0  0  0  0  0  0  0  0
   81.2230  -36.3480   48.7210 C   0  0  0  0  0  0  0  0  0  0  0  0
   81.2030  -37.8890   48.6960 C   0  0  0  0  0  0  0  0  0  0  0  0
   81.0440  -38.4760   47.5490 O   0  0  0  0  0  0  0  0  0  0  0  0
   81.4100  -38.5170   49.7690 O   0  0  0  0  0  0  0  0  0  0  0  0
   77.6780  -31.0600   48.1980 N   0  0  0  0  0  0  0  0  0  0  0  0
   77.8240  -29.6020   47.9420 C   0  0  2  0  0  0  0  0  0  0  0  0
   79.0970  -29.3640   47.1290 C   0  0  0  0  0  0  0  0  0  0  0  0
   79.0260  -28.7140   46.0530 O   0  0  0  0  0  0  0  0  0  0  0  0
   77.9040  -28.8610   49.2670 C   0  0  0  0  0  0  0  0  0  0  0  0
  2  1  1  1
  3  2  1  0
  4  3  2  0
  5  2  1  0
  6  5  1  0
  7  6  1  0
  8  7  1  0
  9  8  1  0
 10  3  1  0
 11 10  1  0
 12 11  1  0
 13 12  2  0
 15 14  1  6
 16 15  1  0
 17 16  2  0
 18 15  1  0
 19 18  1  0
 20 19  1  0
 21 19  2  0
 22 20  2  0
 23 22  1  0
 23 21  1  0
 25 24  1  0
 26 25  1  0
 27 26  2  0
 25 28  1  1
 29 26  1  0
 30 29  1  0
 31 30  1  0
 32 31  2  0
 30 33  1  6
 35 34  1  6
 36 35  1  0
 37 36  2  0
 38 35  1  0
 39 38  1  0
 40 39  1  0
 41 40  2  0
 42 40  1  0
 44 43  1  1
 45 44  1  0
 46 45  2  0
 47 44  1  0
 48 47  1  0
 49 48  1  0
 50 48  1  0
 52 51  1  1
 53 52  1  0
 54 53  2  0
 55 52  1  0
 56 55  1  0
 57 56  2  0
 58 56  1  0
 59 53  1  0
 60 59  1  0
 61 60  1  0
 62 61  2  0
 60 63  1  1
 64 63  1  0
 65 64  1  0
 66 64  1  0
 68 67  1  0
 68 69  1  1
 70 69  2  0
 71 68  1  0
 72 71  1  0
 73 72  1  0
 73 67  1  0
 74 69  1  0
 75 74  1  0
 76 75  1  0
 77 76  2  0
 75 78  1  6
 79 78  1  0
 80 79  1  0
 81 80  2  0
 82 80  1  0
 83 76  1  0
 84 83  1  0
 85 84  1  0
 86 85  2  0
 84 87  1  6
 88 87  1  0
 89 88  1  0
 90 88  1  0
 91 85  1  0
 92 91  1  0
 93 92  1  0
 94 93  2  0
 92 95  1  1
 96 93  1  0
 97 96  1  6
 98 97  1  0
 99 98  2  0
100 97  1  0
101100  1  0
100102  1  1
103 98  1  0
104103  1  0
105104  1  0
106105  2  0
104107  1  6
108107  1  0
109105  1  0
110109  1  0
111110  1  0
112111  2  0
110113  1  1
114113  1  0
115114  1  0
116115  2  0
117115  1  0
118111  1  0
119118  1  0
120119  1  0
121120  2  0
119122  1  1
123122  1  0
124123  1  0
125124  2  0
126124  1  0
128127  1  0
129128  1  0
130129  2  0
128131  1  1
M  END
$$$$
