
     RDKit          3D

130128  0  0  0  0  0  0  0  0999 V2000
  -75.6900  -28.1160   -3.8940 N   0  0  0  0  0  0  0  0  0  0  0  0
  -75.5100  -28.1320   -2.4370 C   0  0  2  0  0  0  0  0  0  0  0  0
  -75.8070  -29.5110   -1.8800 C   0  0  0  0  0  0  0  0  0  0  0  0
  -76.6870  -30.2030   -2.3710 O   0  0  0  0  0  0  0  0  0  0  0  0
  -76.4950  -27.0720   -1.9370 C   0  0  0  0  0  0  0  0  0  0  0  0
  -76.9110  -26.3350   -3.1330 C   0  0  0  0  0  0  0  0  0  0  0  0
  -76.8570  -27.2950   -4.2570 C   0  0  0  0  0  0  0  0  0  0  0  0
  -87.0830  -32.1040    4.2110 N   0  0  0  0  0  0  0  0  0  0  0  0
  -86.0500  -31.2540    3.6350 C   0  0  2  0  0  0  0  0  0  0  0  0
  -84.8760  -31.1070    4.5540 C   0  0  0  0  0  0  0  0  0  0  0  0
  -84.9980  -31.3570    5.7550 O   0  0  0  0  0  0  0  0  0  0  0  0
  -86.5720  -29.8790    3.2190 C   0  0  0  0  0  0  0  0  0  0  0  0
  -87.6970  -29.3250    4.0330 C   0  0  0  0  0  0  0  0  0  0  0  0
  -87.4500  -28.6910    5.2360 C   0  0  0  0  0  0  0  0  0  0  0  0
  -89.0080  -29.3650    3.5550 C   0  0  0  0  0  0  0  0  0  0  0  0
  -88.5090  -28.1350    5.9650 C   0  0  0  0  0  0  0  0  0  0  0  0
  -90.0640  -28.8310    4.2920 C   0  0  0  0  0  0  0  0  0  0  0  0
  -89.8120  -28.2110    5.4840 C   0  0  0  0  0  0  0  0  0  0  0  0
  -83.7170  -30.7180    3.9780 N   0  0  0  0  0  0  0  0  0  0  0  0
  -82.4660  -30.5550    4.6960 C   0  0  2  0  0  0  0  0  0  0  0  0
  -82.0500  -31.8610    5.3850 C   0  0  0  0  0  0  0  0  0  0  0  0
  -82.4650  -32.9360    4.9630 O   0  0  0  0  0  0  0  0  0  0  0  0
  -82.4940  -29.3430    5.6470 C   0  0  0  0  0  0  0  0  0  0  0  0
  -82.4630  -27.9960    4.9410 C   0  0  0  0  0  0  0  0  0  0  0  0
  -81.2660  -27.6800    4.0540 C   0  0  0  0  0  0  0  0  0  0  0  0
  -81.5000  -27.1320    2.9540 O   0  0  0  0  0  0  0  0  0  0  0  0
  -80.1080  -27.9510    4.4550 O   0  0  0  0  0  0  0  0  0  0  0  0
  -72.3860  -29.4020    5.4940 N   0  0  0  0  0  0  0  0  0  0  0  0
  -73.1400  -28.8100    4.3990 C   0  0  2  0  0  0  0  0  0  0  0  0
  -72.2170  -28.1230    3.3960 C   0  0  0  0  0  0  0  0  0  0  0  0
  -71.2150  -27.5000    3.7870 O   0  0  0  0  0  0  0  0  0  0  0  0
  -74.1640  -27.8110    4.9410 C   0  0  0  0  0  0  0  0  0  0  0  0
  -75.3650  -27.6130    4.0140 C   0  0  0  0  0  0  0  0  0  0  0  0
  -76.2290  -26.4160    4.3650 C   0  0  0  0  0  0  0  0  0  0  0  0
  -76.8510  -26.5240    5.6910 N   0  0  0  0  0  0  0  0  0  0  0  0
  -76.5420  -25.7480    6.7310 C   0  0  0  0  0  0  0  0  0  0  0  0
  -75.6160  -24.7980    6.6130 N   0  0  0  0  0  0  0  0  0  0  0  0
  -77.1660  -25.9060    7.8920 N   0  0  0  0  0  0  0  0  0  0  0  0
  -72.5610  -28.2370    2.0930 N   0  0  0  0  0  0  0  0  0  0  0  0
  -71.8380  -27.5950    0.9900 C   0  0  2  0  0  0  0  0  0  0  0  0
  -72.8140  -26.7340    0.1840 C   0  0  0  0  0  0  0  0  0  0  0  0
  -74.0290  -26.8620    0.3360 O   0  0  0  0  0  0  0  0  0  0  0  0
  -71.1200  -28.6170    0.0610 C   0  0  2  0  0  0  0  0  0  0  0  0
  -72.0020  -29.0640   -0.9730 O   0  0  0  0  0  0  0  0  0  0  0  0
  -70.4810  -29.7820    0.7950 C   0  0  0  0  0  0  0  0  0  0  0  0
  -72.2720  -25.8710   -0.6730 N   0  0  0  0  0  0  0  0  0  0  0  0
  -73.0480  -25.0870   -1.6200 C   0  0  2  0  0  0  0  0  0  0  0  0
  -72.5360  -25.4020   -3.0530 C   0  0  0  0  0  0  0  0  0  0  0  0
  -71.9820  -26.4910   -3.2880 O   0  0  0  0  0  0  0  0  0  0  0  0
  -73.0650  -23.5800   -1.2710 C   0  0  0  0  0  0  0  0  0  0  0  0
  -71.7190  -22.9290   -0.9580 C   0  0  0  0  0  0  0  0  0  0  0  0
  -70.7230  -23.2500   -1.6470 O   0  0  0  0  0  0  0  0  0  0  0  0
  -71.6680  -22.0850   -0.0370 O   0  0  0  0  0  0  0  0  0  0  0  0
  -72.7340  -24.4730   -4.0060 N   0  0  0  0  0  0  0  0  0  0  0  0
  -72.2710  -24.6450   -5.3760 C   0  0  2  0  0  0  0  0  0  0  0  0
  -70.7510  -24.4490   -5.4520 C   0  0  0  0  0  0  0  0  0  0  0  0
  -70.1200  -24.8970   -6.4100 O   0  0  0  0  0  0  0  0  0  0  0  0
  -72.9740  -23.6430   -6.3040 C   0  0  0  0  0  0  0  0  0  0  0  0
  -74.3860  -24.0320   -6.7050 C   0  0  0  0  0  0  0  0  0  0  0  0
  -75.4970  -23.5170   -5.8090 C   0  0  0  0  0  0  0  0  0  0  0  0
  -75.1960  -22.8970   -4.7600 O   0  0  0  0  0  0  0  0  0  0  0  0
  -76.6790  -23.7360   -6.1650 O   0  0  0  0  0  0  0  0  0  0  0  0
  -69.9230  -24.9140    3.4740 N   0  0  0  0  0  0  0  0  0  0  0  0
  -70.3300  -23.7500    4.2750 C   0  0  2  0  0  0  0  0  0  0  0  0
  -70.5220  -24.0930    5.7910 C   0  0  0  0  0  0  0  0  0  0  0  0
  -70.2210  -23.2410    6.6270 O   0  0  0  0  0  0  0  0  0  0  0  0
  -71.5380  -23.0090    3.6590 C   0  0  0  0  0  0  0  0  0  0  0  0
  -72.7430  -23.8350    3.2670 C   0  0  0  0  0  0  0  0  0  0  0  0
  -72.7800  -25.0470    3.4420 O   0  0  0  0  0  0  0  0  0  0  0  0
  -73.7570  -23.2040    2.6780 N   0  0  0  0  0  0  0  0  0  0  0  0
  -78.8870  -31.8740   -3.1780 N   0  0  0  0  0  0  0  0  0  0  0  0
  -79.9280  -30.8940   -3.4730 C   0  0  2  0  0  0  0  0  0  0  0  0
  -79.9020  -30.4290   -4.9230 C   0  0  0  0  0  0  0  0  0  0  0  0
  -79.6090  -29.2650   -5.2310 O   0  0  0  0  0  0  0  0  0  0  0  0
  -79.9090  -29.7210   -2.4680 C   0  0  0  0  0  0  0  0  0  0  0  0
  -79.8620  -30.1520   -0.9820 C   0  0  0  0  0  0  0  0  0  0  0  0
  -79.8570  -29.0150    0.0180 C   0  0  0  0  0  0  0  0  0  0  0  0
  -79.8910  -27.7990   -0.3200 O   0  0  0  0  0  0  0  0  0  0  0  0
  -79.8150  -29.4000    1.2890 N   0  0  0  0  0  0  0  0  0  0  0  0
  -80.2520  -31.3640   -5.8180 N   0  0  0  0  0  0  0  0  0  0  0  0
  -80.3860  -31.1460   -7.2590 C   0  0  2  0  0  0  0  0  0  0  0  0
  -81.3860  -29.9740   -7.3960 C   0  0  0  0  0  0  0  0  0  0  0  0
  -82.4780  -29.9950   -6.7800 O   0  0  0  0  0  0  0  0  0  0  0  0
  -80.8880  -32.4490   -7.9690 C   0  0  2  0  0  0  0  0  0  0  0  0
  -79.9670  -33.6840   -7.6740 C   0  0  0  0  0  0  0  0  0  0  0  0
  -81.1440  -32.2660   -9.4760 C   0  0  0  0  0  0  0  0  0  0  0  0
  -78.6720  -33.8120   -8.4170 C   0  0  0  0  0  0  0  0  0  0  0  0
  -80.9710  -28.9150   -8.1330 N   0  0  0  0  0  0  0  0  0  0  0  0
  -81.8200  -27.7200   -8.2770 C   0  0  2  0  0  0  0  0  0  0  0  0
  -83.2000  -27.9860   -8.8390 C   0  0  0  0  0  0  0  0  0  0  0  0
  -83.3810  -28.8950   -9.6580 O   0  0  0  0  0  0  0  0  0  0  0  0
  -81.0150  -26.8200   -9.2140 C   0  0  0  0  0  0  0  0  0  0  0  0
  -79.6260  -27.2390   -9.0300 C   0  0  0  0  0  0  0  0  0  0  0  0
  -79.7080  -28.7350   -8.8710 C   0  0  0  0  0  0  0  0  0  0  0  0
  -84.1550  -27.1940   -8.3580 N   0  0  0  0  0  0  0  0  0  0  0  0
  -85.5450  -27.2640   -8.7710 C   0  0  0  0  0  0  0  0  0  0  0  0
  -86.5130  -27.8960   -7.7970 C   0  0  0  0  0  0  0  0  0  0  0  0
  -86.1480  -28.3420   -6.7010 O   0  0  0  0  0  0  0  0  0  0  0  0
  -87.7620  -27.9780   -8.2550 N   0  0  0  0  0  0  0  0  0  0  0  0
  -88.9070  -28.4870   -7.5210 C   0  0  2  0  0  0  0  0  0  0  0  0
  -88.8400  -29.9870   -7.2780 C   0  0  0  0  0  0  0  0  0  0  0  0
  -89.0430  -30.7760   -8.1940 O   0  0  0  0  0  0  0  0  0  0  0  0
  -90.2410  -28.0580   -8.1930 C   0  0  2  0  0  0  0  0  0  0  0  0
  -90.3090  -26.5310   -8.3860 C   0  0  0  0  0  0  0  0  0  0  0  0
  -91.4300  -28.5330   -7.3660 C   0  0  0  0  0  0  0  0  0  0  0  0
  -90.4100  -26.0680   -9.7410 C   0  0  0  0  0  0  0  0  0  0  0  0
  -88.5560  -30.3570   -6.0100 N   0  0  0  0  0  0  0  0  0  0  0  0
  -88.5390  -31.7230   -5.4410 C   0  0  2  0  0  0  0  0  0  0  0  0
  -87.7830  -32.7640   -6.3180 C   0  0  0  0  0  0  0  0  0  0  0  0
  -88.3400  -33.7820   -6.7430 O   0  0  0  0  0  0  0  0  0  0  0  0
  -89.9770  -32.1590   -5.1140 C   0  0  0  0  0  0  0  0  0  0  0  0
  -90.7290  -31.0720   -4.3690 C   0  0  0  0  0  0  0  0  0  0  0  0
  -92.1780  -31.5880   -3.4530 S   0  0  0  0  0  0  0  0  0  0  0  0
  -93.4780  -31.2300   -4.6560 C   0  0  0  0  0  0  0  0  0  0  0  0
  -86.4900  -32.4590   -6.5430 N   0  0  0  0  0  0  0  0  0  0  0  0
  -85.5050  -33.1490   -7.3560 C   0  0  2  0  0  0  0  0  0  0  0  0
  -84.4160  -33.7870   -6.5060 C   0  0  0  0  0  0  0  0  0  0  0  0
  -83.5030  -34.3940   -7.0630 O   0  0  0  0  0  0  0  0  0  0  0  0
  -84.8160  -32.0940   -8.2130 C   0  0  0  0  0  0  0  0  0  0  0  0
  -85.4590  -31.8580   -9.5270 C   0  0  0  0  0  0  0  0  0  0  0  0
  -86.6650  -31.9940   -9.6840 O   0  0  0  0  0  0  0  0  0  0  0  0
  -84.6540  -31.5090  -10.5090 N   0  0  0  0  0  0  0  0  0  0  0  0
  -84.4670  -33.6130   -5.1800 N   0  0  0  0  0  0  0  0  0  0  0  0
  -83.4150  -34.0640   -4.2780 C   0  0  2  0  0  0  0  0  0  0  0  0
  -83.1990  -35.5570   -4.2560 C   0  0  0  0  0  0  0  0  0  0  0  0
  -84.1490  -36.3320   -4.2860 O   0  0  0  0  0  0  0  0  0  0  0  0
  -83.6490  -33.5480   -2.8580 C   0  0  0  0  0  0  0  0  0  0  0  0
  -83.6770  -32.0420   -2.6990 C   0  0  0  0  0  0  0  0  0  0  0  0
  -83.8570  -31.3300   -3.7210 O   0  0  0  0  0  0  0  0  0  0  0  0
  -83.5390  -31.5760   -1.5590 O   0  0  0  0  0  0  0  0  0  0  0  0
  2  1  1  0
  2  3  1  1
  4  3  2  0
  5  2  1  0
  6  5  1  0
  7  6  1  0
  7  1  1  0
  9  8  1  1
 10  9  1  0
 11 10  2  0
 12  9  1  0
 13 12  1  0
 14 13  2  0
 15 13  1  0
 16 14  1  0
 17 15  2  0
 18 17  1  0
 18 16  2  0
 19 10  1  0
 20 19  1  0
 21 20  1  0
 22 21  2  0
 20 23  1  1
 24 23  1  0
 25 24  1  0
 26 25  2  0
 27 25  1  0
 29 28  1  1
 30 29  1  0
 31 30  2  0
 32 29  1  0
 33 32  1  0
 34 33  1  0
 35 34  1  0
 36 35  1  0
 37 36  1  0
 38 36  2  0
 39 30  1  0
 40 39  1  1
 41 40  1  0
 42 41  2  0
 43 40  1  0
 44 43  1  0
 43 45  1  1
 46 41  1  0
 47 46  1  0
 48 47  1  0
 49 48  2  0
 47 50  1  1
 51 50  1  0
 52 51  2  0
 53 51  1  0
 54 48  1  0
 55 54  1  0
 56 55  1  0
 57 56  2  0
 55 58  1  6
 59 58  1  0
 60 59  1  0
 61 60  2  0
 62 60  1  0
 64 63  1  6
 65 64  1  0
 66 65  2  0
 67 64  1  0
 68 67  1  0
 69 68  2  0
 70 68  1  0
 72 71  1  1
 73 72  1  0
 74 73  2  0
 75 72  1  0
 76 75  1  0
 77 76  1  0
 78 77  2  0
 79 77  1  0
 80 73  1  0
 81 80  1  1
 82 81  1  0
 83 82  2  0
 84 81  1  0
 85 84  1  0
 84 86  1  6
 87 85  1  0
 88 82  1  0
 89 88  1  0
 89 90  1  6
 91 90  2  0
 92 89  1  0
 93 92  1  0
 94 88  1  0
 94 93  1  0
 95 90  1  0
 96 95  1  0
 97 96  1  0
 98 97  2  0
 99 97  1  0
100 99  1  6
101100  1  0
102101  2  0
103100  1  0
104103  1  0
103105  1  1
106104  1  0
107101  1  0
108107  1  0
109108  1  0
110109  2  0
108111  1  6
112111  1  0
113112  1  0
114113  1  0
115109  1  0
116115  1  0
117116  1  0
118117  2  0
116119  1  6
120119  1  0
121120  2  0
122120  1  0
123117  1  0
124123  1  0
125124  1  0
126125  2  0
124127  1  1
128127  1  0
129128  2  0
130128  1  0
M  END
$$$$
