
     RDKit          3D

105101  0  0  0  0  0  0  0  0999 V2000
  197.0620  156.2920  171.9070 N   0  0  0  0  0  0  0  0  0  0  0  0
  196.8930  156.6340  173.3030 C   0  0  2  0  0  0  0  0  0  0  0  0
  197.3220  155.5950  174.3090 C   0  0  0  0  0  0  0  0  0  0  0  0
  197.2960  154.3970  174.0290 O   0  0  0  0  0  0  0  0  0  0  0  0
  195.4020  156.8140  173.4050 C   0  0  0  0  0  0  0  0  0  0  0  0
  194.8540  155.8830  172.3480 C   0  0  0  0  0  0  0  0  0  0  0  0
  195.8330  155.9430  171.2230 C   0  0  0  0  0  0  0  0  0  0  0  0
  197.6250  156.0790  175.5060 N   0  0  0  0  0  0  0  0  0  0  0  0
  197.9140  155.2890  176.6850 C   0  0  2  0  0  0  0  0  0  0  0  0
  196.6410  155.3060  177.5190 C   0  0  0  0  0  0  0  0  0  0  0  0
  195.7980  156.1800  177.3230 O   0  0  0  0  0  0  0  0  0  0  0  0
  199.0800  155.9320  177.4240 C   0  0  0  0  0  0  0  0  0  0  0  0
  200.3490  156.1810  176.5970 C   0  0  0  0  0  0  0  0  0  0  0  0
  201.3600  156.8910  177.4420 C   0  0  0  0  0  0  0  0  0  0  0  0
  200.9140  154.9150  176.1020 C   0  0  0  0  0  0  0  0  0  0  0  0
  196.4360  154.3580  178.4320 N   0  0  0  0  0  0  0  0  0  0  0  0
  195.1850  154.4570  179.1900 C   0  0  2  0  0  0  0  0  0  0  0  0
  195.2780  154.3770  180.6880 C   0  0  0  0  0  0  0  0  0  0  0  0
  196.1880  153.7540  181.2420 O   0  0  0  0  0  0  0  0  0  0  0  0
  194.2170  153.3370  178.7940 C   0  0  2  0  0  0  0  0  0  0  0  0
  194.7910  152.0700  179.1520 O   0  0  0  0  0  0  0  0  0  0  0  0
  193.9710  153.3710  177.3360 C   0  0  0  0  0  0  0  0  0  0  0  0
  194.2470  154.9440  181.3230 N   0  0  0  0  0  0  0  0  0  0  0  0
  194.0000  154.8520  182.7570 C   0  0  2  0  0  0  0  0  0  0  0  0
  192.5260  154.5230  183.0240 C   0  0  0  0  0  0  0  0  0  0  0  0
  191.6490  155.0140  182.3220 O   0  0  0  0  0  0  0  0  0  0  0  0
  194.4120  156.1460  183.4600 C   0  0  0  0  0  0  0  0  0  0  0  0
  195.9230  156.4070  183.4300 C   0  0  0  0  0  0  0  0  0  0  0  0
  196.3530  157.6930  184.1270 C   0  0  0  0  0  0  0  0  0  0  0  0
  197.8520  157.6810  184.3550 C   0  0  0  0  0  0  0  0  0  0  0  0
  198.3890  158.9520  184.8970 N   0  0  0  0  0  0  0  0  0  0  0  0
  191.1570  144.4200  183.2500 N   0  0  0  0  0  0  0  0  0  0  0  0
  191.1680  145.3600  184.3380 C   0  0  2  0  0  0  0  0  0  0  0  0
  189.8070  145.4810  184.9760 C   0  0  0  0  0  0  0  0  0  0  0  0
  189.7130  145.6120  186.1970 O   0  0  0  0  0  0  0  0  0  0  0  0
  191.6330  146.7110  183.8920 C   0  0  0  0  0  0  0  0  0  0  0  0
  193.0720  146.7350  183.5390 C   0  0  0  0  0  0  0  0  0  0  0  0
  193.8280  145.7740  183.7250 O   0  0  0  0  0  0  0  0  0  0  0  0
  193.4900  147.8660  183.0630 N   0  0  0  0  0  0  0  0  0  0  0  0
  191.0270  156.7390  197.1790 N   0  0  0  0  0  0  0  0  0  0  0  0
  191.8180  155.6830  196.5430 C   0  0  2  0  0  0  0  0  0  0  0  0
  191.6160  154.3730  197.2650 C   0  0  0  0  0  0  0  0  0  0  0  0
  191.7690  154.3020  198.4840 O   0  0  0  0  0  0  0  0  0  0  0  0
  193.3220  155.9890  196.5500 C   0  0  0  0  0  0  0  0  0  0  0  0
  194.2130  154.8710  195.8800 C   0  0  0  0  0  0  0  0  0  0  0  0
  195.7320  155.1780  195.9340 C   0  0  0  0  0  0  0  0  0  0  0  0
  196.1890  156.1090  194.8310 C   0  0  0  0  0  0  0  0  0  0  0  0
  197.6500  156.4440  194.9390 N   0  0  0  0  0  0  0  0  0  0  0  0
  193.0090  150.5050  197.6680 N   0  0  0  0  0  0  0  0  0  0  0  0
  194.1160  149.6460  197.2800 C   0  0  2  0  0  0  0  0  0  0  0  0
  194.3250  148.5110  198.2350 C   0  0  0  0  0  0  0  0  0  0  0  0
  194.5240  148.7210  199.4320 O   0  0  0  0  0  0  0  0  0  0  0  0
  195.4190  150.4490  197.1350 C   0  0  0  0  0  0  0  0  0  0  0  0
  195.8960  151.2030  198.3710 C   0  0  0  0  0  0  0  0  0  0  0  0
  197.1450  152.0310  198.0780 C   0  0  0  0  0  0  0  0  0  0  0  0
  197.5000  152.2500  196.9120 O   0  0  0  0  0  0  0  0  0  0  0  0
  197.8190  152.4920  199.1300 N   0  0  0  0  0  0  0  0  0  0  0  0
  195.9580  145.2890  196.6470 N   0  0  0  0  0  0  0  0  0  0  0  0
  197.0280  144.5140  196.0290 C   0  0  2  0  0  0  0  0  0  0  0  0
  197.6290  145.2580  194.8760 C   0  0  0  0  0  0  0  0  0  0  0  0
  197.0300  146.1860  194.3550 O   0  0  0  0  0  0  0  0  0  0  0  0
  196.5160  143.2000  195.4660 C   0  0  2  0  0  0  0  0  0  0  0  0
  195.7090  143.4860  194.3280 O   0  0  0  0  0  0  0  0  0  0  0  0
  195.6520  142.4810  196.5120 C   0  0  0  0  0  0  0  0  0  0  0  0
  198.7720  144.7950  194.3780 N   0  0  0  0  0  0  0  0  0  0  0  0
  199.3100  145.4280  193.1870 C   0  0  2  0  0  0  0  0  0  0  0  0
  198.3630  145.2670  192.0130 C   0  0  0  0  0  0  0  0  0  0  0  0
  198.1610  146.1720  191.1900 O   0  0  0  0  0  0  0  0  0  0  0  0
  200.6380  144.8190  192.8040 C   0  0  0  0  0  0  0  0  0  0  0  0
  197.7670  144.0880  191.9560 N   0  0  0  0  0  0  0  0  0  0  0  0
  196.8150  143.7150  190.9390 C   0  0  2  0  0  0  0  0  0  0  0  0
  195.5500  144.5740  190.9850 C   0  0  0  0  0  0  0  0  0  0  0  0
  195.0070  144.9260  189.9340 O   0  0  0  0  0  0  0  0  0  0  0  0
  196.5470  142.2220  191.0730 C   0  0  0  0  0  0  0  0  0  0  0  0
  195.5600  141.6480  190.1270 C   0  0  0  0  0  0  0  0  0  0  0  0
  195.5350  140.1440  190.1780 C   0  0  0  0  0  0  0  0  0  0  0  0
  196.3890  139.5790  190.8190 O   0  0  0  0  0  0  0  0  0  0  0  0
  194.6570  139.5570  189.5940 O   0  0  0  0  0  0  0  0  0  0  0  0
  195.0600  144.9210  192.1830 N   0  0  0  0  0  0  0  0  0  0  0  0
  193.8580  145.7310  192.2450 C   0  0  2  0  0  0  0  0  0  0  0  0
  193.8830  146.9190  193.2140 C   0  0  0  0  0  0  0  0  0  0  0  0
  193.8980  146.7940  194.4600 O   0  0  0  0  0  0  0  0  0  0  0  0
  192.6270  144.8610  192.5050 C   0  0  0  0  0  0  0  0  0  0  0  0
  192.5640  144.0760  193.8100 C   0  0  0  0  0  0  0  0  0  0  0  0
  191.3090  143.2330  193.8400 C   0  0  0  0  0  0  0  0  0  0  0  0
  191.1010  142.5350  195.1590 C   0  0  0  0  0  0  0  0  0  0  0  0
  192.1350  141.5150  195.4070 N   0  0  0  0  0  0  0  0  0  0  0  0
  193.8570  148.0850  192.5580 N   0  0  0  0  0  0  0  0  0  0  0  0
  193.8050  149.4230  193.1180 C   0  0  2  0  0  0  0  0  0  0  0  0
  192.9190  150.2080  192.1880 C   0  0  0  0  0  0  0  0  0  0  0  0
  192.9080  149.9250  190.9900 O   0  0  0  0  0  0  0  0  0  0  0  0
  195.1510  150.1480  193.0590 C   0  0  2  0  0  0  0  0  0  0  0  0
  195.4530  150.4120  191.6770 O   0  0  0  0  0  0  0  0  0  0  0  0
  196.2590  149.2920  193.6200 C   0  0  0  0  0  0  0  0  0  0  0  0
  194.8130  158.7580  176.7410 N   0  0  0  0  0  0  0  0  0  0  0  0
  195.7860  159.8340  176.7350 C   0  0  2  0  0  0  0  0  0  0  0  0
  196.6950  159.7580  175.4960 C   0  0  0  0  0  0  0  0  0  0  0  0
  197.6370  158.9620  175.5110 O   0  0  0  0  0  0  0  0  0  0  0  0
  196.6230  159.7800  178.0010 C   0  0  0  0  0  0  0  0  0  0  0  0
  195.8430  160.0420  179.2120 C   0  0  0  0  0  0  0  0  0  0  0  0
  195.2350  159.0330  179.8770 C   0  0  0  0  0  0  0  0  0  0  0  0
  195.7110  161.3130  179.6890 C   0  0  0  0  0  0  0  0  0  0  0  0
  194.5120  159.2770  180.9870 C   0  0  0  0  0  0  0  0  0  0  0  0
  194.9820  161.5640  180.8160 C   0  0  0  0  0  0  0  0  0  0  0  0
  194.3830  160.5400  181.4630 C   0  0  0  0  0  0  0  0  0  0  0  0
  2  1  1  0
  2  3  1  1
  4  3  2  0
  5  2  1  0
  6  5  1  0
  7  6  1  0
  7  1  1  0
  8  3  1  0
  9  8  1  0
 10  9  1  0
 11 10  2  0
  9 12  1  1
 13 12  1  0
 14 13  1  0
 15 13  1  0
 16 10  1  0
 17 16  1  6
 18 17  1  0
 19 18  2  0
 20 17  1  0
 21 20  1  0
 20 22  1  6
 23 18  1  0
 24 23  1  0
 25 24  1  0
 26 25  2  0
 24 27  1  1
 28 27  1  0
 29 28  1  0
 30 29  1  0
 31 30  1  0
 33 32  1  6
 34 33  1  0
 35 34  2  0
 36 33  1  0
 37 36  1  0
 38 37  2  0
 39 37  1  0
 41 40  1  1
 42 41  1  0
 43 42  2  0
 44 41  1  0
 45 44  1  0
 46 45  1  0
 47 46  1  0
 48 47  1  0
 50 49  1  1
 51 50  1  0
 52 51  2  0
 53 50  1  0
 54 53  1  0
 55 54  1  0
 56 55  2  0
 57 55  1  0
 59 58  1  6
 60 59  1  0
 61 60  2  0
 62 59  1  0
 63 62  1  0
 62 64  1  1
 65 60  1  0
 66 65  1  0
 67 66  1  0
 68 67  2  0
 66 69  1  6
 70 67  1  0
 71 70  1  0
 72 71  1  0
 73 72  2  0
 71 74  1  1
 75 74  1  0
 76 75  1  0
 77 76  2  0
 78 76  1  0
 79 72  1  0
 80 79  1  0
 81 80  1  0
 82 81  2  0
 80 83  1  1
 84 83  1  0
 85 84  1  0
 86 85  1  0
 87 86  1  0
 88 81  1  0
 89 88  1  6
 90 89  1  0
 91 90  2  0
 92 89  1  0
 93 92  1  0
 92 94  1  6
 96 95  1  1
 97 96  1  0
 98 97  2  0
 99 96  1  0
100 99  1  0
101100  2  0
102100  1  0
103101  1  0
104102  2  0
105104  1  0
105103  2  0
M  END
$$$$
