
     RDKit          3D

121119  0  0  0  0  0  0  0  0999 V2000
   67.8320  -16.5990   23.6590 N   0  0  0  0  0  0  0  0  0  0  0  0
   68.0710  -17.1130   25.0060 C   0  0  2  0  0  0  0  0  0  0  0  0
   69.3090  -18.0290   24.9570 C   0  0  0  0  0  0  0  0  0  0  0  0
   70.2510  -17.7340   24.2040 O   0  0  0  0  0  0  0  0  0  0  0  0
   66.8170  -17.8390   25.5060 C   0  0  0  0  0  0  0  0  0  0  0  0
   66.8750  -18.3340   26.8390 O   0  0  0  0  0  0  0  0  0  0  0  0
   69.3150  -19.1070   25.7710 N   0  0  0  0  0  0  0  0  0  0  0  0
   70.3650  -20.1160   25.8660 C   0  0  2  0  0  0  0  0  0  0  0  0
   70.2200  -21.0190   24.6490 C   0  0  0  0  0  0  0  0  0  0  0  0
   69.1210  -21.5400   24.4050 O   0  0  0  0  0  0  0  0  0  0  0  0
   70.2880  -20.9050   27.2120 C   0  0  2  0  0  0  0  0  0  0  0  0
   70.6860  -20.0300   28.4110 C   0  0  0  0  0  0  0  0  0  0  0  0
   71.1080  -22.2050   27.1910 C   0  0  0  0  0  0  0  0  0  0  0  0
   69.4970  -19.4460   29.2070 C   0  0  0  0  0  0  0  0  0  0  0  0
   71.3020  -21.1740   23.8610 N   0  0  0  0  0  0  0  0  0  0  0  0
   71.2380  -22.0530   22.6790 C   0  0  2  0  0  0  0  0  0  0  0  0
   71.0060  -23.5080   23.1130 C   0  0  0  0  0  0  0  0  0  0  0  0
   71.3990  -23.8820   24.2210 O   0  0  0  0  0  0  0  0  0  0  0  0
   72.6070  -21.8410   22.0160 C   0  0  0  0  0  0  0  0  0  0  0  0
   73.1810  -20.5900   22.6490 C   0  0  0  0  0  0  0  0  0  0  0  0
   72.6530  -20.6050   24.0310 C   0  0  0  0  0  0  0  0  0  0  0  0
   88.5210  -11.4540   19.8320 N   0  0  0  0  0  0  0  0  0  0  0  0
   87.0780  -11.6490   19.8960 C   0  0  2  0  0  0  0  0  0  0  0  0
   86.5810  -11.5340   21.3260 C   0  0  0  0  0  0  0  0  0  0  0  0
   87.1250  -12.1850   22.2130 O   0  0  0  0  0  0  0  0  0  0  0  0
   86.6550  -12.9880   19.2680 C   0  0  0  0  0  0  0  0  0  0  0  0
   85.1950  -13.0290   18.9300 C   0  0  0  0  0  0  0  0  0  0  0  0
   84.7450  -12.7760   17.6460 N   0  0  0  0  0  0  0  0  0  0  0  0
   84.1260  -13.2150   19.7410 C   0  0  0  0  0  0  0  0  0  0  0  0
   83.4300  -12.8510   17.7070 C   0  0  0  0  0  0  0  0  0  0  0  0
   83.0070  -13.1140   18.9430 N   0  0  0  0  0  0  0  0  0  0  0  0
   85.5420  -10.7040   21.5370 N   0  0  0  0  0  0  0  0  0  0  0  0
   84.9080  -10.4130   22.8310 C   0  0  2  0  0  0  0  0  0  0  0  0
   84.4660  -11.6320   23.6360 C   0  0  0  0  0  0  0  0  0  0  0  0
   84.3600  -11.5730   24.8680 O   0  0  0  0  0  0  0  0  0  0  0  0
   83.7060   -9.4910   22.6240 C   0  0  0  0  0  0  0  0  0  0  0  0
   84.0860   -8.0530   22.3000 C   0  0  0  0  0  0  0  0  0  0  0  0
   84.6510   -7.2430   23.4570 C   0  0  0  0  0  0  0  0  0  0  0  0
   83.7810   -7.2770   24.6330 N   0  0  0  0  0  0  0  0  0  0  0  0
   82.6840   -6.5460   24.7910 C   0  0  0  0  0  0  0  0  0  0  0  0
   81.9500   -6.6770   25.8850 N   0  0  0  0  0  0  0  0  0  0  0  0
   82.3000   -5.6950   23.8490 N   0  0  0  0  0  0  0  0  0  0  0  0
   84.1880  -12.7180   22.9270 N   0  0  0  0  0  0  0  0  0  0  0  0
   83.7400  -13.9780   23.4880 C   0  0  2  0  0  0  0  0  0  0  0  0
   84.8630  -14.7120   24.2260 C   0  0  0  0  0  0  0  0  0  0  0  0
   84.6160  -15.3800   25.2370 O   0  0  0  0  0  0  0  0  0  0  0  0
   83.1990  -14.8420   22.3460 C   0  0  0  0  0  0  0  0  0  0  0  0
   82.2380  -15.9280   22.7550 C   0  0  0  0  0  0  0  0  0  0  0  0
   80.9110  -15.5710   23.3900 C   0  0  0  0  0  0  0  0  0  0  0  0
   80.4710  -14.4010   23.3380 O   0  0  0  0  0  0  0  0  0  0  0  0
   80.2890  -16.5080   23.9300 O   0  0  0  0  0  0  0  0  0  0  0  0
   86.1010  -14.5670   23.7310 N   0  0  0  0  0  0  0  0  0  0  0  0
   87.2880  -15.2610   24.2520 C   0  0  2  0  0  0  0  0  0  0  0  0
   88.5120  -14.3940   24.6350 C   0  0  0  0  0  0  0  0  0  0  0  0
   89.4940  -14.9620   25.1150 O   0  0  0  0  0  0  0  0  0  0  0  0
   87.7260  -16.3130   23.1960 C   0  0  2  0  0  0  0  0  0  0  0  0
   88.0880  -15.6300   21.8310 C   0  0  0  0  0  0  0  0  0  0  0  0
   86.6800  -17.4460   23.0560 C   0  0  0  0  0  0  0  0  0  0  0  0
   88.8740  -16.4490   20.8400 C   0  0  0  0  0  0  0  0  0  0  0  0
   82.0950  -16.4160   26.5470 N   0  0  0  0  0  0  0  0  0  0  0  0
   81.4090  -15.6920   27.6220 C   0  0  2  0  0  0  0  0  0  0  0  0
   79.9100  -15.8780   27.6140 C   0  0  0  0  0  0  0  0  0  0  0  0
   79.3260  -16.0700   28.6800 O   0  0  0  0  0  0  0  0  0  0  0  0
   81.7630  -14.2000   27.6040 C   0  0  0  0  0  0  0  0  0  0  0  0
   83.1390  -13.9180   28.1600 C   0  0  0  0  0  0  0  0  0  0  0  0
   83.4610  -12.4470   28.0770 C   0  0  0  0  0  0  0  0  0  0  0  0
   84.7290  -12.1170   28.7290 N   0  0  0  0  0  0  0  0  0  0  0  0
   85.9230  -12.1330   28.1370 C   0  0  0  0  0  0  0  0  0  0  0  0
   86.0310  -12.5110   26.8650 N   0  0  0  0  0  0  0  0  0  0  0  0
   87.0120  -11.7900   28.8070 N   0  0  0  0  0  0  0  0  0  0  0  0
   79.2950  -15.8220   26.4320 N   0  0  0  0  0  0  0  0  0  0  0  0
   77.8510  -15.9730   26.2510 C   0  0  2  0  0  0  0  0  0  0  0  0
   77.4200  -17.3750   25.7880 C   0  0  0  0  0  0  0  0  0  0  0  0
   76.4450  -17.9160   26.3160 O   0  0  0  0  0  0  0  0  0  0  0  0
   77.3270  -14.9430   25.2270 C   0  0  0  0  0  0  0  0  0  0  0  0
   77.3720  -13.4950   25.6660 C   0  0  0  0  0  0  0  0  0  0  0  0
   77.3130  -13.2390   26.8920 O   0  0  0  0  0  0  0  0  0  0  0  0
   77.4500  -12.6180   24.7870 O   0  0  0  0  0  0  0  0  0  0  0  0
   78.1390  -17.9460   24.7900 N   0  0  0  0  0  0  0  0  0  0  0  0
   77.8250  -19.2230   24.1530 C   0  0  2  0  0  0  0  0  0  0  0  0
   78.8510  -20.3480   24.3700 C   0  0  0  0  0  0  0  0  0  0  0  0
   78.8670  -21.2990   23.5910 O   0  0  0  0  0  0  0  0  0  0  0  0
   77.5940  -19.0100   22.6580 C   0  0  0  0  0  0  0  0  0  0  0  0
   76.1640  -22.4570   17.6510 N   0  0  0  0  0  0  0  0  0  0  0  0
   76.4550  -21.0460   17.6480 C   0  0  2  0  0  0  0  0  0  0  0  0
   77.7590  -20.8080   18.4100 C   0  0  0  0  0  0  0  0  0  0  0  0
   77.9940  -21.3990   19.4640 O   0  0  0  0  0  0  0  0  0  0  0  0
   75.2470  -20.1650   18.1020 C   0  0  2  0  0  0  0  0  0  0  0  0
   75.3440  -18.7230   17.5620 C   0  0  0  0  0  0  0  0  0  0  0  0
   75.0090  -20.1790   19.6150 C   0  0  0  0  0  0  0  0  0  0  0  0
   75.0930  -18.5760   16.0090 C   0  0  0  0  0  0  0  0  0  0  0  0
   84.4440   -8.6920   16.0060 N   0  0  0  0  0  0  0  0  0  0  0  0
   84.7850   -9.0380   17.3800 C   0  0  2  0  0  0  0  0  0  0  0  0
   83.5900   -9.4770   18.2540 C   0  0  0  0  0  0  0  0  0  0  0  0
   83.8240   -9.9830   19.3520 O   0  0  0  0  0  0  0  0  0  0  0  0
   85.5460   -7.8910   18.0370 C   0  0  0  0  0  0  0  0  0  0  0  0
   84.7620   -6.7060   18.0150 O   0  0  0  0  0  0  0  0  0  0  0  0
   82.3330   -9.2810   17.7920 N   0  0  0  0  0  0  0  0  0  0  0  0
   81.1090   -9.6540   18.5270 C   0  0  2  0  0  0  0  0  0  0  0  0
   80.1410  -10.4990   17.6610 C   0  0  0  0  0  0  0  0  0  0  0  0
   78.9840  -10.7270   18.0420 O   0  0  0  0  0  0  0  0  0  0  0  0
   80.3910   -8.4110   19.1010 C   0  0  2  0  0  0  0  0  0  0  0  0
   80.0140   -7.5180   18.0510 O   0  0  0  0  0  0  0  0  0  0  0  0
   81.1980   -7.6940   20.1830 C   0  0  0  0  0  0  0  0  0  0  0  0
   80.6170  -10.9400   16.4930 N   0  0  0  0  0  0  0  0  0  0  0  0
   79.8590  -11.7270   15.5440 C   0  0  2  0  0  0  0  0  0  0  0  0
   79.7630  -13.1880   15.9710 C   0  0  0  0  0  0  0  0  0  0  0  0
   80.6780  -13.7340   16.6030 O   0  0  0  0  0  0  0  0  0  0  0  0
   80.4420  -11.5800   14.1400 C   0  0  0  0  0  0  0  0  0  0  0  0
   80.0990   -9.9830   13.3570 S   0  0  0  0  0  0  0  0  0  0  0  0
   78.6320  -13.8030   15.6200 N   0  0  0  0  0  0  0  0  0  0  0  0
   78.3530  -15.1990   15.8870 C   0  0  2  0  0  0  0  0  0  0  0  0
   78.0500  -15.9060   14.5820 C   0  0  0  0  0  0  0  0  0  0  0  0
   77.4840  -15.3250   13.6520 O   0  0  0  0  0  0  0  0  0  0  0  0
   77.2010  -15.3710   16.8840 C   0  0  0  0  0  0  0  0  0  0  0  0
   77.5920  -15.0420   18.3000 C   0  0  0  0  0  0  0  0  0  0  0  0
   78.2080  -15.9930   19.1070 C   0  0  0  0  0  0  0  0  0  0  0  0
   77.3510  -13.7790   18.8280 C   0  0  0  0  0  0  0  0  0  0  0  0
   78.5710  -15.6880   20.4130 C   0  0  0  0  0  0  0  0  0  0  0  0
   77.7170  -13.4730   20.1380 C   0  0  0  0  0  0  0  0  0  0  0  0
   78.3210  -14.4290   20.9210 C   0  0  0  0  0  0  0  0  0  0  0  0
  2  1  1  6
  3  2  1  0
  4  3  2  0
  5  2  1  0
  6  5  1  0
  7  3  1  0
  8  7  1  1
  9  8  1  0
 10  9  2  0
 11  8  1  0
 12 11  1  0
 11 13  1  6
 14 12  1  0
 15  9  1  0
 16 15  1  0
 16 17  1  1
 18 17  2  0
 19 16  1  0
 20 19  1  0
 21 20  1  0
 21 15  1  0
 23 22  1  1
 24 23  1  0
 25 24  2  0
 26 23  1  0
 27 26  1  0
 28 27  1  0
 29 27  2  0
 30 28  2  0
 31 30  1  0
 31 29  1  0
 32 24  1  0
 33 32  1  0
 34 33  1  0
 35 34  2  0
 33 36  1  6
 37 36  1  0
 38 37  1  0
 39 38  1  0
 40 39  1  0
 41 40  1  0
 42 40  2  0
 43 34  1  0
 44 43  1  0
 45 44  1  0
 46 45  2  0
 44 47  1  6
 48 47  1  0
 49 48  1  0
 50 49  2  0
 51 49  1  0
 52 45  1  0
 53 52  1  6
 54 53  1  0
 55 54  2  0
 56 53  1  0
 57 56  1  0
 56 58  1  6
 59 57  1  0
 61 60  1  6
 62 61  1  0
 63 62  2  0
 64 61  1  0
 65 64  1  0
 66 65  1  0
 67 66  1  0
 68 67  1  0
 69 68  1  0
 70 68  2  0
 71 62  1  0
 72 71  1  0
 73 72  1  0
 74 73  2  0
 72 75  1  6
 76 75  1  0
 77 76  2  0
 78 76  1  0
 79 73  1  0
 80 79  1  0
 81 80  1  0
 82 81  2  0
 80 83  1  6
 85 84  1  1
 86 85  1  0
 87 86  2  0
 88 85  1  0
 89 88  1  0
 88 90  1  1
 91 89  1  0
 93 92  1  6
 94 93  1  0
 95 94  2  0
 96 93  1  0
 97 96  1  0
 98 94  1  0
 99 98  1  6
100 99  1  0
101100  2  0
102 99  1  0
103102  1  0
102104  1  1
105100  1  0
106105  1  0
107106  1  0
108107  2  0
106109  1  6
110109  1  0
111107  1  0
112111  1  0
113112  1  0
114113  2  0
112115  1  1
116115  1  0
117116  2  0
118116  1  0
119117  1  0
120118  2  0
121120  1  0
121119  2  0
M  END
$$$$
