
     RDKit          3D

121119  0  0  0  0  0  0  0  0999 V2000
  -87.4580   16.2900  -24.1070 N   0  0  0  0  0  0  0  0  0  0  0  0
  -87.3570   16.9720  -25.4010 C   0  0  2  0  0  0  0  0  0  0  0  0
  -86.0840   17.8450  -25.3980 C   0  0  0  0  0  0  0  0  0  0  0  0
  -85.0650   17.4420  -24.8110 O   0  0  0  0  0  0  0  0  0  0  0  0
  -88.6290   17.7920  -25.6480 C   0  0  0  0  0  0  0  0  0  0  0  0
  -88.7180   18.4390  -26.9110 O   0  0  0  0  0  0  0  0  0  0  0  0
  -86.1450   19.0100  -26.0650 N   0  0  0  0  0  0  0  0  0  0  0  0
  -85.0710   19.9930  -26.1690 C   0  0  2  0  0  0  0  0  0  0  0  0
  -85.1640   20.8940  -24.9450 C   0  0  0  0  0  0  0  0  0  0  0  0
  -86.2490   21.4380  -24.6790 O   0  0  0  0  0  0  0  0  0  0  0  0
  -85.1750   20.8230  -27.4830 C   0  0  2  0  0  0  0  0  0  0  0  0
  -85.0990   19.9310  -28.7540 C   0  0  0  0  0  0  0  0  0  0  0  0
  -84.1620   21.9790  -27.5340 C   0  0  0  0  0  0  0  0  0  0  0  0
  -83.7880   19.0800  -28.9920 C   0  0  0  0  0  0  0  0  0  0  0  0
  -84.0440   21.0430  -24.1950 N   0  0  0  0  0  0  0  0  0  0  0  0
  -84.0550   21.9250  -23.0120 C   0  0  2  0  0  0  0  0  0  0  0  0
  -84.3090   23.3610  -23.4720 C   0  0  0  0  0  0  0  0  0  0  0  0
  -83.9460   23.7060  -24.5980 O   0  0  0  0  0  0  0  0  0  0  0  0
  -82.6490   21.7480  -22.4280 C   0  0  0  0  0  0  0  0  0  0  0  0
  -82.1020   20.4890  -23.0630 C   0  0  0  0  0  0  0  0  0  0  0  0
  -82.7060   20.4520  -24.4120 C   0  0  0  0  0  0  0  0  0  0  0  0
  -66.7630   11.1850  -20.2550 N   0  0  0  0  0  0  0  0  0  0  0  0
  -68.1990   11.4160  -20.3050 C   0  0  2  0  0  0  0  0  0  0  0  0
  -68.6980   11.3070  -21.7320 C   0  0  0  0  0  0  0  0  0  0  0  0
  -68.1180   11.9170  -22.6270 O   0  0  0  0  0  0  0  0  0  0  0  0
  -68.5890   12.7640  -19.6680 C   0  0  0  0  0  0  0  0  0  0  0  0
  -70.0540   12.8510  -19.3450 C   0  0  0  0  0  0  0  0  0  0  0  0
  -70.5380   12.5190  -18.0930 N   0  0  0  0  0  0  0  0  0  0  0  0
  -71.0960   13.1730  -20.1460 C   0  0  0  0  0  0  0  0  0  0  0  0
  -71.8500   12.6740  -18.1640 C   0  0  0  0  0  0  0  0  0  0  0  0
  -72.2350   13.0650  -19.3790 N   0  0  0  0  0  0  0  0  0  0  0  0
  -69.7690   10.5160  -21.9310 N   0  0  0  0  0  0  0  0  0  0  0  0
  -70.4160   10.2270  -23.2160 C   0  0  2  0  0  0  0  0  0  0  0  0
  -70.8390   11.4550  -24.0280 C   0  0  0  0  0  0  0  0  0  0  0  0
  -70.9500   11.3870  -25.2610 O   0  0  0  0  0  0  0  0  0  0  0  0
  -71.6150    9.2960  -23.0030 C   0  0  0  0  0  0  0  0  0  0  0  0
  -71.2320    7.8510  -22.6710 C   0  0  0  0  0  0  0  0  0  0  0  0
  -70.7180    7.0250  -23.8390 C   0  0  0  0  0  0  0  0  0  0  0  0
  -71.5810    7.1330  -25.0130 N   0  0  0  0  0  0  0  0  0  0  0  0
  -72.6950    6.4350  -25.2010 C   0  0  0  0  0  0  0  0  0  0  0  0
  -73.4240    6.6210  -26.2900 N   0  0  0  0  0  0  0  0  0  0  0  0
  -73.0910    5.5480  -24.3000 N   0  0  0  0  0  0  0  0  0  0  0  0
  -71.0790   12.5520  -23.3360 N   0  0  0  0  0  0  0  0  0  0  0  0
  -71.5110   13.8100  -23.9150 C   0  0  2  0  0  0  0  0  0  0  0  0
  -70.3950   14.5410  -24.6650 C   0  0  0  0  0  0  0  0  0  0  0  0
  -70.6420   15.2000  -25.6820 O   0  0  0  0  0  0  0  0  0  0  0  0
  -72.0490   14.6980  -22.7840 C   0  0  0  0  0  0  0  0  0  0  0  0
  -72.9860   15.7970  -23.2270 C   0  0  0  0  0  0  0  0  0  0  0  0
  -74.3380   15.4120  -23.7880 C   0  0  0  0  0  0  0  0  0  0  0  0
  -74.7570   14.2380  -23.6660 O   0  0  0  0  0  0  0  0  0  0  0  0
  -74.9930   16.3190  -24.3440 O   0  0  0  0  0  0  0  0  0  0  0  0
  -69.1610   14.4190  -24.1590 N   0  0  0  0  0  0  0  0  0  0  0  0
  -67.9870   15.1240  -24.6850 C   0  0  2  0  0  0  0  0  0  0  0  0
  -66.7690   14.2600  -25.0640 C   0  0  0  0  0  0  0  0  0  0  0  0
  -65.7860   14.8270  -25.5420 O   0  0  0  0  0  0  0  0  0  0  0  0
  -67.5660   16.1930  -23.6370 C   0  0  2  0  0  0  0  0  0  0  0  0
  -67.1790   15.5270  -22.2740 C   0  0  0  0  0  0  0  0  0  0  0  0
  -68.6400   17.2930  -23.5000 C   0  0  0  0  0  0  0  0  0  0  0  0
  -66.4060   16.3580  -21.3020 C   0  0  0  0  0  0  0  0  0  0  0  0
  -73.2460   16.3120  -27.0740 N   0  0  0  0  0  0  0  0  0  0  0  0
  -73.9430   15.5990  -28.1490 C   0  0  2  0  0  0  0  0  0  0  0  0
  -75.4550   15.7350  -28.0940 C   0  0  0  0  0  0  0  0  0  0  0  0
  -76.0980   15.7840  -29.1440 O   0  0  0  0  0  0  0  0  0  0  0  0
  -73.5480   14.1220  -28.1570 C   0  0  0  0  0  0  0  0  0  0  0  0
  -72.1560   13.8670  -28.6790 C   0  0  0  0  0  0  0  0  0  0  0  0
  -71.8430   12.3960  -28.6040 C   0  0  0  0  0  0  0  0  0  0  0  0
  -70.5710   12.0650  -29.2430 N   0  0  0  0  0  0  0  0  0  0  0  0
  -69.3880   12.0500  -28.6320 C   0  0  0  0  0  0  0  0  0  0  0  0
  -69.2970   12.3770  -27.3430 N   0  0  0  0  0  0  0  0  0  0  0  0
  -68.2930   11.7180  -29.2970 N   0  0  0  0  0  0  0  0  0  0  0  0
  -76.0210   15.7870  -26.8780 N   0  0  0  0  0  0  0  0  0  0  0  0
  -77.4590   15.9010  -26.6410 C   0  0  2  0  0  0  0  0  0  0  0  0
  -77.8890   17.2850  -26.1390 C   0  0  0  0  0  0  0  0  0  0  0  0
  -78.8820   17.8230  -26.6330 O   0  0  0  0  0  0  0  0  0  0  0  0
  -77.9080   14.8370  -25.6210 C   0  0  0  0  0  0  0  0  0  0  0  0
  -77.8830   13.3990  -26.1040 C   0  0  0  0  0  0  0  0  0  0  0  0
  -78.0450   13.1730  -27.3310 O   0  0  0  0  0  0  0  0  0  0  0  0
  -77.7260   12.5000  -25.2580 O   0  0  0  0  0  0  0  0  0  0  0  0
  -77.1480   17.8470  -25.1500 N   0  0  0  0  0  0  0  0  0  0  0  0
  -77.4580   19.1210  -24.5010 C   0  0  2  0  0  0  0  0  0  0  0  0
  -76.4640   20.2790  -24.7720 C   0  0  0  0  0  0  0  0  0  0  0  0
  -76.4670   21.2620  -24.0260 O   0  0  0  0  0  0  0  0  0  0  0  0
  -77.6170   18.9040  -22.9970 C   0  0  0  0  0  0  0  0  0  0  0  0
  -79.1070   22.3730  -18.0980 N   0  0  0  0  0  0  0  0  0  0  0  0
  -78.7950   20.9560  -18.1000 C   0  0  2  0  0  0  0  0  0  0  0  0
  -77.4800   20.7270  -18.8580 C   0  0  0  0  0  0  0  0  0  0  0  0
  -77.2220   21.3470  -19.8880 O   0  0  0  0  0  0  0  0  0  0  0  0
  -79.9900   20.0590  -18.5600 C   0  0  2  0  0  0  0  0  0  0  0  0
  -79.8980   18.6340  -17.9940 C   0  0  0  0  0  0  0  0  0  0  0  0
  -80.1860   20.0410  -20.0740 C   0  0  0  0  0  0  0  0  0  0  0  0
  -80.1430   18.5090  -16.4560 C   0  0  0  0  0  0  0  0  0  0  0  0
  -70.8220    8.5650  -16.3740 N   0  0  0  0  0  0  0  0  0  0  0  0
  -70.4920    8.9250  -17.7480 C   0  0  2  0  0  0  0  0  0  0  0  0
  -71.7010    9.3130  -18.6320 C   0  0  0  0  0  0  0  0  0  0  0  0
  -71.4860    9.7660  -19.7550 O   0  0  0  0  0  0  0  0  0  0  0  0
  -69.6760    7.8140  -18.3950 C   0  0  0  0  0  0  0  0  0  0  0  0
  -70.4360    6.6170  -18.3950 O   0  0  0  0  0  0  0  0  0  0  0  0
  -72.9480    9.1480  -18.1480 N   0  0  0  0  0  0  0  0  0  0  0  0
  -74.1760    9.4970  -18.8910 C   0  0  2  0  0  0  0  0  0  0  0  0
  -75.1420   10.3670  -18.0610 C   0  0  0  0  0  0  0  0  0  0  0  0
  -76.2640   10.6420  -18.4940 O   0  0  0  0  0  0  0  0  0  0  0  0
  -74.9060    8.2500  -19.4140 C   0  0  2  0  0  0  0  0  0  0  0  0
  -75.3020    7.4100  -18.3300 O   0  0  0  0  0  0  0  0  0  0  0  0
  -74.1140    7.4830  -20.4630 C   0  0  0  0  0  0  0  0  0  0  0  0
  -74.7050   10.7800  -16.8690 N   0  0  0  0  0  0  0  0  0  0  0  0
  -75.4690   11.5920  -15.9400 C   0  0  2  0  0  0  0  0  0  0  0  0
  -75.5540   13.0390  -16.3900 C   0  0  0  0  0  0  0  0  0  0  0  0
  -74.6420   13.5680  -17.0300 O   0  0  0  0  0  0  0  0  0  0  0  0
  -74.8920   11.4770  -14.5300 C   0  0  0  0  0  0  0  0  0  0  0  0
  -75.1870    9.8780  -13.7290 S   0  0  0  0  0  0  0  0  0  0  0  0
  -76.6600   13.6720  -16.0240 N   0  0  0  0  0  0  0  0  0  0  0  0
  -76.9260   15.0680  -16.2890 C   0  0  2  0  0  0  0  0  0  0  0  0
  -77.2140   15.7610  -14.9770 C   0  0  0  0  0  0  0  0  0  0  0  0
  -77.7790   15.1710  -14.0530 O   0  0  0  0  0  0  0  0  0  0  0  0
  -78.0800   15.2460  -17.2740 C   0  0  0  0  0  0  0  0  0  0  0  0
  -77.6940   14.9310  -18.6950 C   0  0  0  0  0  0  0  0  0  0  0  0
  -77.0790   15.8870  -19.4940 C   0  0  0  0  0  0  0  0  0  0  0  0
  -77.9420   13.6740  -19.2360 C   0  0  0  0  0  0  0  0  0  0  0  0
  -76.7160   15.5920  -20.8050 C   0  0  0  0  0  0  0  0  0  0  0  0
  -77.5810   13.3810  -20.5530 C   0  0  0  0  0  0  0  0  0  0  0  0
  -76.9750   14.3430  -21.3270 C   0  0  0  0  0  0  0  0  0  0  0  0
  2  1  1  1
  3  2  1  0
  4  3  2  0
  5  2  1  0
  6  5  1  0
  7  3  1  0
  8  7  1  1
  9  8  1  0
 10  9  2  0
 11  8  1  0
 12 11  1  0
 11 13  1  6
 14 12  1  0
 15  9  1  0
 16 15  1  0
 16 17  1  6
 18 17  2  0
 19 16  1  0
 20 19  1  0
 21 20  1  0
 21 15  1  0
 23 22  1  6
 24 23  1  0
 25 24  2  0
 26 23  1  0
 27 26  1  0
 28 27  1  0
 29 27  2  0
 30 28  2  0
 31 30  1  0
 31 29  1  0
 32 24  1  0
 33 32  1  0
 34 33  1  0
 35 34  2  0
 33 36  1  1
 37 36  1  0
 38 37  1  0
 39 38  1  0
 40 39  1  0
 41 40  1  0
 42 40  2  0
 43 34  1  0
 44 43  1  0
 45 44  1  0
 46 45  2  0
 44 47  1  1
 48 47  1  0
 49 48  1  0
 50 49  2  0
 51 49  1  0
 52 45  1  0
 53 52  1  1
 54 53  1  0
 55 54  2  0
 56 53  1  0
 57 56  1  0
 56 58  1  1
 59 57  1  0
 61 60  1  1
 62 61  1  0
 63 62  2  0
 64 61  1  0
 65 64  1  0
 66 65  1  0
 67 66  1  0
 68 67  1  0
 69 68  1  0
 70 68  2  0
 71 62  1  0
 72 71  1  0
 73 72  1  0
 74 73  2  0
 72 75  1  1
 76 75  1  0
 77 76  2  0
 78 76  1  0
 79 73  1  0
 80 79  1  0
 81 80  1  0
 82 81  2  0
 80 83  1  1
 85 84  1  6
 86 85  1  0
 87 86  2  0
 88 85  1  0
 89 88  1  0
 88 90  1  6
 91 89  1  0
 93 92  1  1
 94 93  1  0
 95 94  2  0
 96 93  1  0
 97 96  1  0
 98 94  1  0
 99 98  1  1
100 99  1  0
101100  2  0
102 99  1  0
103102  1  0
102104  1  6
105100  1  0
106105  1  0
107106  1  0
108107  2  0
106109  1  1
110109  1  0
111107  1  0
112111  1  0
113112  1  0
114113  2  0
112115  1  6
116115  1  0
117116  2  0
118116  1  0
119117  1  0
120118  2  0
121120  1  0
121119  2  0
M  END
$$$$
