
     RDKit          3D

158154  0  0  0  0  0  0  0  0999 V2000
  172.3280  126.9540  150.1490 N   0  0  0  0  0  0  0  0  0  0  0  0
  173.7680  127.1080  150.0760 C   0  0  2  0  0  0  0  0  0  0  0  0
  174.4110  125.7390  150.1120 C   0  0  0  0  0  0  0  0  0  0  0  0
  173.7840  124.7590  150.5140 O   0  0  0  0  0  0  0  0  0  0  0  0
  174.3350  127.9760  151.2030 C   0  0  2  0  0  0  0  0  0  0  0  0
  174.2060  127.2990  152.4520 O   0  0  0  0  0  0  0  0  0  0  0  0
  173.6140  129.2760  151.2740 C   0  0  0  0  0  0  0  0  0  0  0  0
  189.6200  132.5560  143.6520 N   0  0  0  0  0  0  0  0  0  0  0  0
  188.5580  133.3700  144.2170 C   0  0  2  0  0  0  0  0  0  0  0  0
  187.2320  133.1820  143.4990 C   0  0  0  0  0  0  0  0  0  0  0  0
  186.2100  133.6720  143.9820 O   0  0  0  0  0  0  0  0  0  0  0  0
  188.9500  134.8420  144.1880 C   0  0  0  0  0  0  0  0  0  0  0  0
  184.0570  130.9050  142.2380 N   0  0  0  0  0  0  0  0  0  0  0  0
  183.3580  129.7060  142.6590 C   0  0  2  0  0  0  0  0  0  0  0  0
  183.3670  128.6630  141.5530 C   0  0  0  0  0  0  0  0  0  0  0  0
  183.3770  128.9800  140.3650 O   0  0  0  0  0  0  0  0  0  0  0  0
  181.9140  130.0190  143.0350 C   0  0  0  0  0  0  0  0  0  0  0  0
  181.8030  130.8310  144.2940 C   0  0  0  0  0  0  0  0  0  0  0  0
  182.7110  130.8500  145.1120 O   0  0  0  0  0  0  0  0  0  0  0  0
  180.6830  131.5050  144.4610 N   0  0  0  0  0  0  0  0  0  0  0  0
  184.9950  127.3260  155.2790 N   0  0  0  0  0  0  0  0  0  0  0  0
  186.0900  128.1760  155.7320 C   0  0  2  0  0  0  0  0  0  0  0  0
  185.6600  129.2180  156.7610 C   0  0  0  0  0  0  0  0  0  0  0  0
  186.5040  129.7380  157.4930 O   0  0  0  0  0  0  0  0  0  0  0  0
  186.7170  128.8710  154.5230 C   0  0  0  0  0  0  0  0  0  0  0  0
  187.7150  129.7910  154.9040 O   0  0  0  0  0  0  0  0  0  0  0  0
  184.3880  129.5520  156.8210 N   0  0  0  0  0  0  0  0  0  0  0  0
  183.9180  130.5510  157.7560 C   0  0  0  0  0  0  0  0  0  0  0  0
  182.7950  131.3540  157.1430 C   0  0  0  0  0  0  0  0  0  0  0  0
  182.3740  131.1160  156.0230 O   0  0  0  0  0  0  0  0  0  0  0  0
  182.3080  132.3070  157.9210 N   0  0  0  0  0  0  0  0  0  0  0  0
  181.2390  133.1820  157.4910 C   0  0  0  0  0  0  0  0  0  0  0  0
  180.0310  133.1320  158.3890 C   0  0  0  0  0  0  0  0  0  0  0  0
  180.1160  132.6660  159.5230 O   0  0  0  0  0  0  0  0  0  0  0  0
  178.8950  133.5920  157.8850 N   0  0  0  0  0  0  0  0  0  0  0  0
  177.6230  133.4320  158.5710 C   0  0  2  0  0  0  0  0  0  0  0  0
  177.2140  131.9640  158.5800 C   0  0  0  0  0  0  0  0  0  0  0  0
  177.7340  131.1460  157.8230 O   0  0  0  0  0  0  0  0  0  0  0  0
  176.5410  134.2730  157.9070 C   0  0  0  0  0  0  0  0  0  0  0  0
  176.7660  135.7450  158.0730 C   0  0  0  0  0  0  0  0  0  0  0  0
  177.7360  136.1270  158.7500 O   0  0  0  0  0  0  0  0  0  0  0  0
  175.9780  136.5330  157.5170 O   0  0  0  0  0  0  0  0  0  0  0  0
  176.2500  131.6370  159.4440 N   0  0  0  0  0  0  0  0  0  0  0  0
  175.7120  130.2860  159.5580 C   0  0  2  0  0  0  0  0  0  0  0  0
  175.0870  129.7790  158.2670 C   0  0  0  0  0  0  0  0  0  0  0  0
  175.1320  128.5750  158.0090 O   0  0  0  0  0  0  0  0  0  0  0  0
  174.6700  130.2340  160.6730 C   0  0  0  0  0  0  0  0  0  0  0  0
  174.1390  128.8570  161.0730 C   0  0  0  0  0  0  0  0  0  0  0  0
  175.2090  128.0650  161.7720 C   0  0  0  0  0  0  0  0  0  0  0  0
  172.8900  128.9540  161.9070 C   0  0  0  0  0  0  0  0  0  0  0  0
  174.5330  130.6750  157.4510 N   0  0  0  0  0  0  0  0  0  0  0  0
  173.9740  130.3110  156.1570 C   0  0  2  0  0  0  0  0  0  0  0  0
  175.0080  129.6980  155.2280 C   0  0  0  0  0  0  0  0  0  0  0  0
  174.6660  128.8410  154.4160 O   0  0  0  0  0  0  0  0  0  0  0  0
  173.3630  131.5430  155.4930 C   0  0  0  0  0  0  0  0  0  0  0  0
  172.0560  132.0040  156.0740 C   0  0  0  0  0  0  0  0  0  0  0  0
  172.2130  132.8530  157.3310 C   0  0  0  0  0  0  0  0  0  0  0  0
  171.1860  133.1820  157.9480 O   0  0  0  0  0  0  0  0  0  0  0  0
  173.3490  133.1830  157.7100 O   0  0  0  0  0  0  0  0  0  0  0  0
  176.2670  130.0980  155.3420 N   0  0  0  0  0  0  0  0  0  0  0  0
  177.2820  129.6440  154.4070 C   0  0  2  0  0  0  0  0  0  0  0  0
  178.2420  128.6300  155.0300 C   0  0  0  0  0  0  0  0  0  0  0  0
  178.9070  127.8960  154.2880 O   0  0  0  0  0  0  0  0  0  0  0  0
  178.0350  130.8570  153.8020 C   0  0  0  0  0  0  0  0  0  0  0  0
  179.1510  131.3580  154.6900 C   0  0  0  0  0  0  0  0  0  0  0  0
  178.5370  130.5530  152.4200 C   0  0  0  0  0  0  0  0  0  0  0  0
  167.0860  136.4560  158.0490 N   0  0  0  0  0  0  0  0  0  0  0  0
  167.3240  137.6060  157.1880 C   0  0  2  0  0  0  0  0  0  0  0  0
  168.0630  137.0980  155.9640 C   0  0  0  0  0  0  0  0  0  0  0  0
  169.2710  137.2790  155.8190 O   0  0  0  0  0  0  0  0  0  0  0  0
  168.0880  138.6800  157.9200 C   0  0  0  0  0  0  0  0  0  0  0  0
  168.2170  139.9530  157.1270 C   0  0  0  0  0  0  0  0  0  0  0  0
  167.4680  140.2020  156.1940 O   0  0  0  0  0  0  0  0  0  0  0  0
  169.1790  140.7700  157.4920 N   0  0  0  0  0  0  0  0  0  0  0  0
  167.3060  136.5820  155.0300 N   0  0  0  0  0  0  0  0  0  0  0  0
  167.7520  135.9360  153.7680 C   0  0  2  0  0  0  0  0  0  0  0  0
  168.4960  136.8460  152.7870 C   0  0  0  0  0  0  0  0  0  0  0  0
  169.4470  136.3630  152.2040 O   0  0  0  0  0  0  0  0  0  0  0  0
  166.5310  135.3660  153.0440 C   0  0  0  0  0  0  0  0  0  0  0  0
  166.9020  134.3700  151.9870 C   0  0  0  0  0  0  0  0  0  0  0  0
  167.8720  133.0340  152.7010 S   0  0  0  0  0  0  0  0  0  0  0  0
  166.5380  131.9950  153.2860 C   0  0  0  0  0  0  0  0  0  0  0  0
  168.1000  138.0800  152.5790 N   0  0  0  0  0  0  0  0  0  0  0  0
  168.7290  138.9240  151.5350 C   0  0  2  0  0  0  0  0  0  0  0  0
  169.6700  139.9680  152.1150 C   0  0  0  0  0  0  0  0  0  0  0  0
  170.0320  140.8450  151.3880 O   0  0  0  0  0  0  0  0  0  0  0  0
  167.6570  139.5150  150.6200 C   0  0  0  0  0  0  0  0  0  0  0  0
  166.6940  138.4610  150.1810 C   0  0  0  0  0  0  0  0  0  0  0  0
  165.3900  138.3560  150.5360 C   0  0  0  0  0  0  0  0  0  0  0  0
  166.9820  137.3080  149.3750 C   0  0  0  0  0  0  0  0  0  0  0  0
  164.8420  137.2410  149.9840 N   0  0  0  0  0  0  0  0  0  0  0  0
  165.7880  136.5770  149.2680 C   0  0  0  0  0  0  0  0  0  0  0  0
  168.1230  136.8270  148.7320 C   0  0  0  0  0  0  0  0  0  0  0  0
  165.6940  135.3970  148.5420 C   0  0  0  0  0  0  0  0  0  0  0  0
  168.0350  135.6610  148.0120 C   0  0  0  0  0  0  0  0  0  0  0  0
  166.8370  134.9610  147.9190 C   0  0  0  0  0  0  0  0  0  0  0  0
  170.0340  139.8120  153.3580 N   0  0  0  0  0  0  0  0  0  0  0  0
  170.9180  140.6130  154.2120 C   0  0  2  0  0  0  0  0  0  0  0  0
  170.5550  142.0920  154.2330 C   0  0  0  0  0  0  0  0  0  0  0  0
  171.4140  142.9610  154.1470 O   0  0  0  0  0  0  0  0  0  0  0  0
  172.3680  140.4370  153.7980 C   0  0  0  0  0  0  0  0  0  0  0  0
  172.8090  139.0290  153.7360 C   0  0  0  0  0  0  0  0  0  0  0  0
  174.2220  138.9500  153.3260 C   0  0  0  0  0  0  0  0  0  0  0  0
  175.0580  138.4670  154.0680 O   0  0  0  0  0  0  0  0  0  0  0  0
  174.5200  139.4380  152.1400 N   0  0  0  0  0  0  0  0  0  0  0  0
  184.7800  126.0430  146.5650 N   0  0  0  0  0  0  0  0  0  0  0  0
  185.7970  127.0780  146.5080 C   0  0  2  0  0  0  0  0  0  0  0  0
  187.1260  126.3870  146.7260 C   0  0  0  0  0  0  0  0  0  0  0  0
  187.2320  125.5250  147.5920 O   0  0  0  0  0  0  0  0  0  0  0  0
  185.5840  128.1770  147.5660 C   0  0  2  0  0  0  0  0  0  0  0  0
  185.5430  127.6000  148.8730 O   0  0  0  0  0  0  0  0  0  0  0  0
  184.2980  128.9440  147.3360 C   0  0  0  0  0  0  0  0  0  0  0  0
  183.0600  123.6130  150.6210 N   0  0  0  0  0  0  0  0  0  0  0  0
  181.7170  124.0120  150.1870 C   0  0  2  0  0  0  0  0  0  0  0  0
  181.5150  125.5150  150.3090 C   0  0  0  0  0  0  0  0  0  0  0  0
  181.7460  126.1040  151.3630 O   0  0  0  0  0  0  0  0  0  0  0  0
  180.8000  123.2350  151.1310 C   0  0  0  0  0  0  0  0  0  0  0  0
  181.6620  122.8150  152.2400 C   0  0  0  0  0  0  0  0  0  0  0  0
  183.0000  122.6180  151.6980 C   0  0  0  0  0  0  0  0  0  0  0  0
  181.1130  126.1340  149.2080 N   0  0  0  0  0  0  0  0  0  0  0  0
  180.9560  127.5680  149.1580 C   0  0  0  0  0  0  0  0  0  0  0  0
  179.5110  127.9780  149.0370 C   0  0  0  0  0  0  0  0  0  0  0  0
  178.6200  127.2440  149.4480 O   0  0  0  0  0  0  0  0  0  0  0  0
  179.2620  129.1430  148.4440 N   0  0  0  0  0  0  0  0  0  0  0  0
  177.9150  129.6190  148.2290 C   0  0  0  0  0  0  0  0  0  0  0  0
  177.6670  130.9330  148.9450 C   0  0  0  0  0  0  0  0  0  0  0  0
  178.6030  131.6660  149.2820 O   0  0  0  0  0  0  0  0  0  0  0  0
  176.3980  131.2320  149.1530 N   0  0  0  0  0  0  0  0  0  0  0  0
  176.0450  132.4730  149.7940 C   0  0  0  0  0  0  0  0  0  0  0  0
  175.5300  133.4810  148.8060 C   0  0  0  0  0  0  0  0  0  0  0  0
  174.6080  134.2390  149.0960 O   0  0  0  0  0  0  0  0  0  0  0  0
  176.1340  133.5070  147.6290 N   0  0  0  0  0  0  0  0  0  0  0  0
  175.6130  134.2840  146.5170 C   0  0  2  0  0  0  0  0  0  0  0  0
  174.6090  133.4180  145.7730 C   0  0  0  0  0  0  0  0  0  0  0  0
  174.9880  132.4520  145.1110 O   0  0  0  0  0  0  0  0  0  0  0  0
  176.7410  134.7410  145.6020 C   0  0  0  0  0  0  0  0  0  0  0  0
  176.3130  135.8320  144.6560 C   0  0  0  0  0  0  0  0  0  0  0  0
  177.0900  136.1760  143.7510 O   0  0  0  0  0  0  0  0  0  0  0  0
  175.1950  136.3540  144.8080 O   0  0  0  0  0  0  0  0  0  0  0  0
  173.3320  133.7780  145.8630 N   0  0  0  0  0  0  0  0  0  0  0  0
  172.2700  133.0310  145.2040 C   0  0  2  0  0  0  0  0  0  0  0  0
  172.2730  133.1820  143.6900 C   0  0  0  0  0  0  0  0  0  0  0  0
  171.6130  132.3940  142.9960 O   0  0  0  0  0  0  0  0  0  0  0  0
  170.9220  133.4580  145.7610 C   0  0  0  0  0  0  0  0  0  0  0  0
  170.6930  133.0670  147.1940 C   0  0  0  0  0  0  0  0  0  0  0  0
  171.1440  131.3720  147.5650 S   0  0  0  0  0  0  0  0  0  0  0  0
  171.3640  131.4860  149.3280 C   0  0  0  0  0  0  0  0  0  0  0  0
  173.0240  134.1530  143.1680 N   0  0  0  0  0  0  0  0  0  0  0  0
  173.2350  134.2620  141.7340 C   0  0  2  0  0  0  0  0  0  0  0  0
  173.9460  133.0430  141.1680 C   0  0  0  0  0  0  0  0  0  0  0  0
  173.7870  132.7400  139.9890 O   0  0  0  0  0  0  0  0  0  0  0  0
  174.0060  135.5390  141.4290 C   0  0  0  0  0  0  0  0  0  0  0  0
  173.1910  136.7900  141.6370 C   0  0  0  0  0  0  0  0  0  0  0  0
  173.9940  138.0220  141.3520 C   0  0  0  0  0  0  0  0  0  0  0  0
  175.2830  137.9620  142.0110 N   0  0  0  0  0  0  0  0  0  0  0  0
  176.2050  138.9100  141.9650 C   0  0  0  0  0  0  0  0  0  0  0  0
  175.9870  140.0120  141.2780 N   0  0  0  0  0  0  0  0  0  0  0  0
  177.3470  138.7510  142.6120 N   0  0  0  0  0  0  0  0  0  0  0  0
  2  1  1  1
  3  2  1  0
  4  3  2  0
  5  2  1  0
  6  5  1  0
  5  7  1  1
  9  8  1  0
 10  9  1  0
 11 10  2  0
  9 12  1  6
 14 13  1  6
 15 14  1  0
 16 15  2  0
 17 14  1  0
 18 17  1  0
 19 18  2  0
 20 18  1  0
 22 21  1  6
 23 22  1  0
 24 23  2  0
 25 22  1  0
 26 25  1  0
 27 23  1  0
 28 27  1  0
 29 28  1  0
 30 29  2  0
 31 29  1  0
 32 31  1  0
 33 32  1  0
 34 33  2  0
 35 33  1  0
 36 35  1  0
 37 36  1  0
 38 37  2  0
 36 39  1  6
 40 39  1  0
 41 40  2  0
 42 40  1  0
 43 37  1  0
 44 43  1  0
 45 44  1  0
 46 45  2  0
 44 47  1  1
 48 47  1  0
 49 48  1  0
 50 48  1  0
 51 45  1  0
 52 51  1  0
 53 52  1  0
 54 53  2  0
 52 55  1  6
 56 55  1  0
 57 56  1  0
 58 57  2  0
 59 57  1  0
 60 53  1  0
 61 60  1  1
 62 61  1  0
 63 62  2  0
 64 61  1  0
 65 64  1  0
 66 64  1  0
 68 67  1  1
 69 68  1  0
 70 69  2  0
 71 68  1  0
 72 71  1  0
 73 72  2  0
 74 72  1  0
 75 69  1  0
 76 75  1  0
 77 76  1  0
 78 77  2  0
 76 79  1  6
 80 79  1  0
 81 80  1  0
 82 81  1  0
 83 77  1  0
 84 83  1  0
 85 84  1  0
 86 85  2  0
 84 87  1  1
 88 87  1  0
 89 88  2  0
 90 88  1  0
 91 89  1  0
 92 91  1  0
 92 90  2  0
 93 90  1  0
 94 92  1  0
 95 93  2  0
 96 95  1  0
 96 94  2  0
 97 85  1  0
 98 97  1  0
 99 98  1  0
100 99  2  0
 98101  1  6
102101  1  0
103102  1  0
104103  2  0
105103  1  0
107106  1  1
108107  1  0
109108  2  0
110107  1  0
111110  1  0
110112  1  6
114113  1  0
114115  1  1
116115  2  0
117114  1  0
118117  1  0
119118  1  0
119113  1  0
120115  1  0
121120  1  0
122121  1  0
123122  2  0
124122  1  0
125124  1  0
126125  1  0
127126  2  0
128126  1  0
129128  1  0
130129  1  0
131130  2  0
132130  1  0
133132  1  0
134133  1  0
135134  2  0
133136  1  6
137136  1  0
138137  2  0
139137  1  0
140134  1  0
141140  1  0
142141  1  0
143142  2  0
141144  1  1
145144  1  0
146145  1  0
147146  1  0
148142  1  0
149148  1  0
150149  1  0
151150  2  0
149152  1  1
153152  1  0
154153  1  0
155154  1  0
156155  1  0
157156  1  0
158156  2  0
M  END
$$$$
