
     RDKit          3D

164160  0  0  0  0  0  0  0  0999 V2000
  175.0880  133.3440  154.7060 N   0  0  0  0  0  0  0  0  0  0  0  0
  175.1270  131.8910  154.7470 C   0  0  2  0  0  0  0  0  0  0  0  0
  176.5680  131.4030  154.6660 C   0  0  0  0  0  0  0  0  0  0  0  0
  177.4650  132.1380  154.2410 O   0  0  0  0  0  0  0  0  0  0  0  0
  174.3030  131.2880  153.6070 C   0  0  2  0  0  0  0  0  0  0  0  0
  174.3110  129.8590  153.7100 O   0  0  0  0  0  0  0  0  0  0  0  0
  174.8730  131.7030  152.2630 C   0  0  0  0  0  0  0  0  0  0  0  0
  175.2930  115.1240  161.9560 N   0  0  0  0  0  0  0  0  0  0  0  0
  174.1090  115.7450  161.3790 C   0  0  2  0  0  0  0  0  0  0  0  0
  173.9200  117.1880  161.8170 C   0  0  0  0  0  0  0  0  0  0  0  0
  173.3810  117.9910  161.0490 O   0  0  0  0  0  0  0  0  0  0  0  0
  172.8560  114.9410  161.7420 C   0  0  0  0  0  0  0  0  0  0  0  0
  175.2110  121.0220  162.8440 N   0  0  0  0  0  0  0  0  0  0  0  0
  176.2610  121.9200  162.3950 C   0  0  2  0  0  0  0  0  0  0  0  0
  177.2460  122.2010  163.5260 C   0  0  0  0  0  0  0  0  0  0  0  0
  176.9290  122.0730  164.7110 O   0  0  0  0  0  0  0  0  0  0  0  0
  175.6660  123.2300  161.8790 C   0  0  0  0  0  0  0  0  0  0  0  0
  174.5710  123.0080  160.8540 C   0  0  0  0  0  0  0  0  0  0  0  0
  174.5550  121.9940  160.1560 O   0  0  0  0  0  0  0  0  0  0  0  0
  173.6480  123.9580  160.7600 N   0  0  0  0  0  0  0  0  0  0  0  0
  181.7220  122.3520  149.0640 N   0  0  0  0  0  0  0  0  0  0  0  0
  180.3780  121.9480  149.4430 C   0  0  2  0  0  0  0  0  0  0  0  0
  179.9330  120.7370  148.6240 C   0  0  0  0  0  0  0  0  0  0  0  0
  180.6520  120.2380  147.7530 O   0  0  0  0  0  0  0  0  0  0  0  0
  179.4070  123.1140  149.2730 C   0  0  0  0  0  0  0  0  0  0  0  0
  178.1230  122.7830  149.7710 O   0  0  0  0  0  0  0  0  0  0  0  0
  178.7210  120.2580  148.9060 N   0  0  0  0  0  0  0  0  0  0  0  0
  178.1720  119.0780  148.2440 C   0  0  2  0  0  0  0  0  0  0  0  0
  177.3300  119.4460  147.0270 C   0  0  0  0  0  0  0  0  0  0  0  0
  177.6190  119.0070  145.9100 O   0  0  0  0  0  0  0  0  0  0  0  0
  177.3410  118.2580  149.2410 C   0  0  0  0  0  0  0  0  0  0  0  0
  178.0100  118.1360  150.4840 O   0  0  0  0  0  0  0  0  0  0  0  0
  176.2900  120.2460  147.2240 N   0  0  0  0  0  0  0  0  0  0  0  0
  175.4220  120.6280  146.1300 C   0  0  0  0  0  0  0  0  0  0  0  0
  174.2300  121.4050  146.6450 C   0  0  0  0  0  0  0  0  0  0  0  0
  174.1150  121.6990  147.8390 O   0  0  0  0  0  0  0  0  0  0  0  0
  173.3440  121.7410  145.7120 N   0  0  0  0  0  0  0  0  0  0  0  0
  172.1090  122.4110  146.0690 C   0  0  0  0  0  0  0  0  0  0  0  0
  171.8540  123.7170  145.3470 C   0  0  0  0  0  0  0  0  0  0  0  0
  172.1580  123.8520  144.1580 O   0  0  0  0  0  0  0  0  0  0  0  0
  171.2920  124.6890  146.0630 N   0  0  0  0  0  0  0  0  0  0  0  0
  170.9270  125.9700  145.4820 C   0  0  2  0  0  0  0  0  0  0  0  0
  172.1570  126.8670  145.3420 C   0  0  0  0  0  0  0  0  0  0  0  0
  173.2860  126.4830  145.6620 O   0  0  0  0  0  0  0  0  0  0  0  0
  169.8480  126.6450  146.3260 C   0  0  0  0  0  0  0  0  0  0  0  0
  168.4550  126.4460  145.7600 C   0  0  0  0  0  0  0  0  0  0  0  0
  167.4830  126.9180  146.3870 O   0  0  0  0  0  0  0  0  0  0  0  0
  168.3320  125.8190  144.6870 O   0  0  0  0  0  0  0  0  0  0  0  0
  171.9310  128.0890  144.8550 N   0  0  0  0  0  0  0  0  0  0  0  0
  173.0310  129.0130  144.6120 C   0  0  2  0  0  0  0  0  0  0  0  0
  173.5800  129.6230  145.8940 C   0  0  0  0  0  0  0  0  0  0  0  0
  174.7310  130.0680  145.9070 O   0  0  0  0  0  0  0  0  0  0  0  0
  172.5830  130.1250  143.6610 C   0  0  0  0  0  0  0  0  0  0  0  0
  173.6740  130.7660  142.8020 C   0  0  0  0  0  0  0  0  0  0  0  0
  174.3330  129.7260  141.9100 C   0  0  0  0  0  0  0  0  0  0  0  0
  173.1040  131.9040  141.9720 C   0  0  0  0  0  0  0  0  0  0  0  0
  172.7920  129.6570  146.9680 N   0  0  0  0  0  0  0  0  0  0  0  0
  173.2250  130.2410  148.2310 C   0  0  2  0  0  0  0  0  0  0  0  0
  173.4100  129.1910  149.3260 C   0  0  0  0  0  0  0  0  0  0  0  0
  173.2250  129.4740  150.5110 O   0  0  0  0  0  0  0  0  0  0  0  0
  172.2600  131.3470  148.6600 C   0  0  0  0  0  0  0  0  0  0  0  0
  170.8200  130.9380  148.9150 C   0  0  0  0  0  0  0  0  0  0  0  0
  169.8850  132.1300  148.8480 C   0  0  0  0  0  0  0  0  0  0  0  0
  169.2480  132.4560  149.8690 O   0  0  0  0  0  0  0  0  0  0  0  0
  169.7880  132.7480  147.7660 O   0  0  0  0  0  0  0  0  0  0  0  0
  173.7900  127.9750  148.9420 N   0  0  0  0  0  0  0  0  0  0  0  0
  174.2940  127.0030  149.9080 C   0  0  2  0  0  0  0  0  0  0  0  0
  175.6240  126.3910  149.4900 C   0  0  0  0  0  0  0  0  0  0  0  0
  176.3600  125.8680  150.3480 O   0  0  0  0  0  0  0  0  0  0  0  0
  173.2390  125.9000  150.1740 C   0  0  0  0  0  0  0  0  0  0  0  0
  173.2220  124.8410  149.0690 C   0  0  0  0  0  0  0  0  0  0  0  0
  173.4070  125.2980  151.5680 C   0  0  0  0  0  0  0  0  0  0  0  0
  165.5660  135.3760  146.5690 N   0  0  0  0  0  0  0  0  0  0  0  0
  164.4460  134.7920  147.3100 C   0  0  2  0  0  0  0  0  0  0  0  0
  164.9970  134.3400  148.6600 C   0  0  0  0  0  0  0  0  0  0  0  0
  165.4710  133.2100  148.8030 O   0  0  0  0  0  0  0  0  0  0  0  0
  163.8060  133.6440  146.5410 C   0  0  0  0  0  0  0  0  0  0  0  0
  162.5090  133.1750  147.1680 C   0  0  0  0  0  0  0  0  0  0  0  0
  161.9020  133.8840  147.9700 O   0  0  0  0  0  0  0  0  0  0  0  0
  162.0770  131.9740  146.8040 N   0  0  0  0  0  0  0  0  0  0  0  0
  164.9320  135.2290  149.6460 N   0  0  0  0  0  0  0  0  0  0  0  0
  165.4050  134.9230  150.9870 C   0  0  2  0  0  0  0  0  0  0  0  0
  164.3080  134.2220  151.7750 C   0  0  0  0  0  0  0  0  0  0  0  0
  163.1240  134.5460  151.6320 O   0  0  0  0  0  0  0  0  0  0  0  0
  165.8520  136.1930  151.7110 C   0  0  0  0  0  0  0  0  0  0  0  0
  167.2820  136.6040  151.4080 C   0  0  0  0  0  0  0  0  0  0  0  0
  168.4790  135.3180  151.8100 S   0  0  0  0  0  0  0  0  0  0  0  0
  170.0000  136.0870  151.2580 C   0  0  0  0  0  0  0  0  0  0  0  0
  164.7190  133.2290  152.5730 N   0  0  0  0  0  0  0  0  0  0  0  0
  163.8630  132.3680  153.4000 C   0  0  2  0  0  0  0  0  0  0  0  0
  162.8510  131.5630  152.5820 C   0  0  0  0  0  0  0  0  0  0  0  0
  161.8570  131.0840  153.1410 O   0  0  0  0  0  0  0  0  0  0  0  0
  163.1500  133.1640  154.5030 C   0  0  0  0  0  0  0  0  0  0  0  0
  164.0750  134.0530  155.2740 C   0  0  0  0  0  0  0  0  0  0  0  0
  165.0010  133.6670  156.1980 C   0  0  0  0  0  0  0  0  0  0  0  0
  164.1710  135.4800  155.1820 C   0  0  0  0  0  0  0  0  0  0  0  0
  165.6660  134.7630  156.6900 N   0  0  0  0  0  0  0  0  0  0  0  0
  165.1740  135.8890  156.0830 C   0  0  0  0  0  0  0  0  0  0  0  0
  163.5010  136.4510  154.4310 C   0  0  0  0  0  0  0  0  0  0  0  0
  165.5270  137.2260  156.2500 C   0  0  0  0  0  0  0  0  0  0  0  0
  163.8540  137.7780  154.5970 C   0  0  0  0  0  0  0  0  0  0  0  0
  164.8570  138.1530  155.5000 C   0  0  0  0  0  0  0  0  0  0  0  0
  163.1290  131.3880  151.2770 N   0  0  0  0  0  0  0  0  0  0  0  0
  162.4280  130.5860  150.2630 C   0  0  2  0  0  0  0  0  0  0  0  0
  160.9020  130.5770  150.3590 C   0  0  0  0  0  0  0  0  0  0  0  0
  160.2670  129.5300  150.1880 O   0  0  0  0  0  0  0  0  0  0  0  0
  162.9680  129.1410  150.2380 C   0  0  0  0  0  0  0  0  0  0  0  0
  162.9410  128.3350  151.5360 C   0  0  0  0  0  0  0  0  0  0  0  0
  163.7730  127.0790  151.4530 C   0  0  0  0  0  0  0  0  0  0  0  0
  164.0850  126.5940  150.3660 O   0  0  0  0  0  0  0  0  0  0  0  0
  164.1500  126.5480  152.6070 N   0  0  0  0  0  0  0  0  0  0  0  0
  180.5980  121.0120  158.5740 N   0  0  0  0  0  0  0  0  0  0  0  0
  179.8490  119.7770  158.7450 C   0  0  2  0  0  0  0  0  0  0  0  0
  180.7280  118.5940  158.3630 C   0  0  0  0  0  0  0  0  0  0  0  0
  181.6010  118.7030  157.4960 O   0  0  0  0  0  0  0  0  0  0  0  0
  178.5680  119.7640  157.8970 C   0  0  2  0  0  0  0  0  0  0  0  0
  178.8420  120.3220  156.6060 O   0  0  0  0  0  0  0  0  0  0  0  0
  177.4670  120.5680  158.5720 C   0  0  0  0  0  0  0  0  0  0  0  0
  181.9720  123.1210  154.1780 N   0  0  0  0  0  0  0  0  0  0  0  0
  181.2330  124.3020  154.6430 C   0  0  2  0  0  0  0  0  0  0  0  0
  179.7650  124.2090  154.2580 C   0  0  0  0  0  0  0  0  0  0  0  0
  179.4070  124.2870  153.0780 O   0  0  0  0  0  0  0  0  0  0  0  0
  181.9460  125.4620  153.9330 C   0  0  0  0  0  0  0  0  0  0  0  0
  182.6640  124.8540  152.7680 C   0  0  0  0  0  0  0  0  0  0  0  0
  182.6510  123.3610  152.8930 C   0  0  0  0  0  0  0  0  0  0  0  0
  178.9070  124.0420  155.2600 N   0  0  0  0  0  0  0  0  0  0  0  0
  177.4890  123.8580  155.0230 C   0  0  0  0  0  0  0  0  0  0  0  0
  176.6740  125.1130  155.2460 C   0  0  0  0  0  0  0  0  0  0  0  0
  176.6070  125.9820  154.3730 O   0  0  0  0  0  0  0  0  0  0  0  0
  176.0360  125.2110  156.4030 N   0  0  0  0  0  0  0  0  0  0  0  0
  175.2330  126.3790  156.7250 C   0  0  0  0  0  0  0  0  0  0  0  0
  173.8020  126.1990  156.2630 C   0  0  0  0  0  0  0  0  0  0  0  0
  173.2010  125.1480  156.4830 O   0  0  0  0  0  0  0  0  0  0  0  0
  173.2570  127.2290  155.6210 N   0  0  0  0  0  0  0  0  0  0  0  0
  171.8940  127.1760  155.1340 C   0  0  0  0  0  0  0  0  0  0  0  0
  170.8870  127.6910  156.1410 C   0  0  0  0  0  0  0  0  0  0  0  0
  170.0590  128.5480  155.8220 O   0  0  0  0  0  0  0  0  0  0  0  0
  170.9500  127.1680  157.3630 N   0  0  0  0  0  0  0  0  0  0  0  0
  170.0510  127.6020  158.4220 C   0  0  2  0  0  0  0  0  0  0  0  0
  170.4750  128.9900  158.8910 C   0  0  0  0  0  0  0  0  0  0  0  0
  171.6050  129.1790  159.3530 O   0  0  0  0  0  0  0  0  0  0  0  0
  170.0850  126.5960  159.5750 C   0  0  0  0  0  0  0  0  0  0  0  0
  168.9200  126.7560  160.5540 C   0  0  0  0  0  0  0  0  0  0  0  0
  168.2730  127.8230  160.6000 O   0  0  0  0  0  0  0  0  0  0  0  0
  168.6500  125.7860  161.2930 O   0  0  0  0  0  0  0  0  0  0  0  0
  169.5670  129.9600  158.7760 N   0  0  0  0  0  0  0  0  0  0  0  0
  169.8570  131.3180  159.2170 C   0  0  2  0  0  0  0  0  0  0  0  0
  169.7680  131.4850  160.7280 C   0  0  0  0  0  0  0  0  0  0  0  0
  170.1660  132.5360  161.2400 O   0  0  0  0  0  0  0  0  0  0  0  0
  168.9100  132.3100  158.5360 C   0  0  0  0  0  0  0  0  0  0  0  0
  169.2940  132.6530  157.1060 C   0  0  0  0  0  0  0  0  0  0  0  0
  168.4770  134.1430  156.5050 S   0  0  0  0  0  0  0  0  0  0  0  0
  168.9620  135.3190  157.7640 C   0  0  0  0  0  0  0  0  0  0  0  0
  169.2610  130.4830  161.4500 N   0  0  0  0  0  0  0  0  0  0  0  0
  169.2440  130.5510  162.9060 C   0  0  2  0  0  0  0  0  0  0  0  0
  170.6290  130.3560  163.5070 C   0  0  0  0  0  0  0  0  0  0  0  0
  170.8530  130.7540  164.6550 O   0  0  0  0  0  0  0  0  0  0  0  0
  168.2800  129.5100  163.4740 C   0  0  0  0  0  0  0  0  0  0  0  0
  166.8490  129.6640  162.9950 C   0  0  0  0  0  0  0  0  0  0  0  0
  165.8980  128.8380  163.8410 C   0  0  0  0  0  0  0  0  0  0  0  0
  164.7740  128.3320  163.0600 N   0  0  0  0  0  0  0  0  0  0  0  0
  164.7320  127.1250  162.5060 C   0  0  0  0  0  0  0  0  0  0  0  0
  165.7540  126.2920  162.6450 N   0  0  0  0  0  0  0  0  0  0  0  0
  163.6670  126.7490  161.8120 N   0  0  0  0  0  0  0  0  0  0  0  0
  2  1  1  6
  3  2  1  0
  4  3  2  0
  5  2  1  0
  6  5  1  0
  5  7  1  6
  9  8  1  0
 10  9  1  0
 11 10  2  0
  9 12  1  1
 14 13  1  1
 15 14  1  0
 16 15  2  0
 17 14  1  0
 18 17  1  0
 19 18  2  0
 20 18  1  0
 22 21  1  6
 23 22  1  0
 24 23  2  0
 25 22  1  0
 26 25  1  0
 27 23  1  0
 28 27  1  0
 29 28  1  0
 30 29  2  0
 28 31  1  1
 32 31  1  0
 33 29  1  0
 34 33  1  0
 35 34  1  0
 36 35  2  0
 37 35  1  0
 38 37  1  0
 39 38  1  0
 40 39  2  0
 41 39  1  0
 42 41  1  0
 43 42  1  0
 44 43  2  0
 42 45  1  1
 46 45  1  0
 47 46  2  0
 48 46  1  0
 49 43  1  0
 50 49  1  0
 51 50  1  0
 52 51  2  0
 50 53  1  6
 54 53  1  0
 55 54  1  0
 56 54  1  0
 57 51  1  0
 58 57  1  0
 59 58  1  0
 60 59  2  0
 58 61  1  1
 62 61  1  0
 63 62  1  0
 64 63  2  0
 65 63  1  0
 66 59  1  0
 67 66  1  6
 68 67  1  0
 69 68  2  0
 70 67  1  0
 71 70  1  0
 72 70  1  0
 74 73  1  6
 75 74  1  0
 76 75  2  0
 77 74  1  0
 78 77  1  0
 79 78  2  0
 80 78  1  0
 81 75  1  0
 82 81  1  0
 83 82  1  0
 84 83  2  0
 82 85  1  1
 86 85  1  0
 87 86  1  0
 88 87  1  0
 89 83  1  0
 90 89  1  0
 91 90  1  0
 92 91  2  0
 90 93  1  1
 94 93  1  0
 95 94  2  0
 96 94  1  0
 97 95  1  0
 98 97  1  0
 98 96  2  0
 99 96  1  0
100 98  1  0
101 99  2  0
102101  1  0
102100  2  0
103 91  1  0
104103  1  0
105104  1  0
106105  2  0
104107  1  1
108107  1  0
109108  1  0
110109  2  0
111109  1  0
113112  1  6
114113  1  0
115114  2  0
116113  1  0
117116  1  0
116118  1  1
120119  1  0
120121  1  6
122121  2  0
123120  1  0
124123  1  0
125124  1  0
125119  1  0
126121  1  0
127126  1  0
128127  1  0
129128  2  0
130128  1  0
131130  1  0
132131  1  0
133132  2  0
134132  1  0
135134  1  0
136135  1  0
137136  2  0
138136  1  0
139138  1  0
140139  1  0
141140  2  0
139142  1  1
143142  1  0
144143  2  0
145143  1  0
146140  1  0
147146  1  0
148147  1  0
149148  2  0
147150  1  6
151150  1  0
152151  1  0
153152  1  0
154148  1  0
155154  1  0
156155  1  0
157156  2  0
155158  1  1
159158  1  0
160159  1  0
161160  1  0
162161  1  0
163162  1  0
164162  2  0
M  END
$$$$
