
     RDKit          3D

354340  0  0  0  0  0  0  0  0999 V2000
  143.4430  156.7390  145.9940 N   0  0  0  0  0  0  0  0  0  0  0  0
  144.6160  156.2130  146.6750 C   0  0  2  0  0  0  0  0  0  0  0  0
  144.3810  156.0970  148.1690 C   0  0  0  0  0  0  0  0  0  0  0  0
  144.7980  155.1090  148.7920 O   0  0  0  0  0  0  0  0  0  0  0  0
  145.8190  157.1020  146.4030 C   0  0  0  0  0  0  0  0  0  0  0  0
  146.9370  156.6680  147.1490 O   0  0  0  0  0  0  0  0  0  0  0  0
  142.2740  153.1060  148.5730 N   0  0  0  0  0  0  0  0  0  0  0  0
  143.0080  151.8850  148.2820 C   0  0  2  0  0  0  0  0  0  0  0  0
  143.8600  151.4700  149.4670 C   0  0  0  0  0  0  0  0  0  0  0  0
  143.8220  150.3110  149.8900 O   0  0  0  0  0  0  0  0  0  0  0  0
  143.8790  152.0790  147.0500 C   0  0  0  0  0  0  0  0  0  0  0  0
  144.6100  150.8230  146.6590 C   0  0  0  0  0  0  0  0  0  0  0  0
  144.1420  149.7160  146.9130 O   0  0  0  0  0  0  0  0  0  0  0  0
  145.7640  150.9850  146.0330 N   0  0  0  0  0  0  0  0  0  0  0  0
  144.6150  152.4100  150.0320 N   0  0  0  0  0  0  0  0  0  0  0  0
  145.4190  152.0890  151.2040 C   0  0  2  0  0  0  0  0  0  0  0  0
  144.5370  151.7330  152.3930 C   0  0  0  0  0  0  0  0  0  0  0  0
  144.8560  150.8140  153.1600 O   0  0  0  0  0  0  0  0  0  0  0  0
  146.3270  153.2620  151.5480 C   0  0  2  0  0  0  0  0  0  0  0  0
  147.2000  153.5320  150.4470 O   0  0  0  0  0  0  0  0  0  0  0  0
  147.1380  152.9590  152.7720 C   0  0  0  0  0  0  0  0  0  0  0  0
  143.2050  148.3010  151.8800 N   0  0  0  0  0  0  0  0  0  0  0  0
  144.2950  147.3400  151.9650 C   0  0  2  0  0  0  0  0  0  0  0  0
  144.6390  147.0380  153.4130 C   0  0  0  0  0  0  0  0  0  0  0  0
  144.8050  145.8740  153.7910 O   0  0  0  0  0  0  0  0  0  0  0  0
  145.5170  147.8690  151.2250 C   0  0  0  0  0  0  0  0  0  0  0  0
  144.7470  148.0730  154.2460 N   0  0  0  0  0  0  0  0  0  0  0  0
  145.0380  147.8170  155.6510 C   0  0  2  0  0  0  0  0  0  0  0  0
  143.8230  147.2530  156.3740 C   0  0  0  0  0  0  0  0  0  0  0  0
  143.9750  146.5960  157.4070 O   0  0  0  0  0  0  0  0  0  0  0  0
  145.5540  149.0800  156.3420 C   0  0  0  0  0  0  0  0  0  0  0  0
  144.5470  150.1810  156.5430 C   0  0  0  0  0  0  0  0  0  0  0  0
  145.1880  151.4540  157.0850 C   0  0  0  0  0  0  0  0  0  0  0  0
  145.7150  151.2860  158.4970 C   0  0  0  0  0  0  0  0  0  0  0  0
  146.1980  152.5740  159.0650 N   0  0  0  0  0  0  0  0  0  0  0  0
  143.9860  143.4460  155.1580 N   0  0  0  0  0  0  0  0  0  0  0  0
  145.1810  142.8140  155.6910 C   0  0  2  0  0  0  0  0  0  0  0  0
  145.2590  142.9080  157.2070 C   0  0  0  0  0  0  0  0  0  0  0  0
  146.1950  142.3620  157.7980 O   0  0  0  0  0  0  0  0  0  0  0  0
  146.4170  143.4380  155.0480 C   0  0  0  0  0  0  0  0  0  0  0  0
  146.5740  143.0870  153.5660 C   0  0  0  0  0  0  0  0  0  0  0  0
  147.4660  144.0610  152.8480 C   0  0  0  0  0  0  0  0  0  0  0  0
  147.1430  141.7030  153.4120 C   0  0  0  0  0  0  0  0  0  0  0  0
  144.3160  143.6000  157.8420 N   0  0  0  0  0  0  0  0  0  0  0  0
  144.0100  143.3710  159.2440 C   0  0  2  0  0  0  0  0  0  0  0  0
  143.0200  142.2370  159.4280 C   0  0  0  0  0  0  0  0  0  0  0  0
  142.9660  141.6460  160.5120 O   0  0  0  0  0  0  0  0  0  0  0  0
  143.4450  144.6390  159.8840 C   0  0  0  0  0  0  0  0  0  0  0  0
  144.5090  145.6850  160.1500 C   0  0  0  0  0  0  0  0  0  0  0  0
  145.7060  145.4100  160.0700 O   0  0  0  0  0  0  0  0  0  0  0  0
  144.0730  146.8990  160.4580 N   0  0  0  0  0  0  0  0  0  0  0  0
  148.6100  135.2170  154.4570 N   0  0  0  0  0  0  0  0  0  0  0  0
  148.1100  135.0360  153.0990 C   0  0  2  0  0  0  0  0  0  0  0  0
  148.2010  136.3280  152.2890 C   0  0  0  0  0  0  0  0  0  0  0  0
  147.3470  136.6100  151.4470 O   0  0  0  0  0  0  0  0  0  0  0  0
  146.6760  134.5020  153.1190 C   0  0  0  0  0  0  0  0  0  0  0  0
  146.4110  133.5320  154.2470 C   0  0  0  0  0  0  0  0  0  0  0  0
  147.1640  132.3810  154.3880 C   0  0  0  0  0  0  0  0  0  0  0  0
  145.4100  133.7730  155.1700 C   0  0  0  0  0  0  0  0  0  0  0  0
  146.9300  131.4990  155.4230 C   0  0  0  0  0  0  0  0  0  0  0  0
  145.1660  132.8970  156.2030 C   0  0  0  0  0  0  0  0  0  0  0  0
  145.9300  131.7630  156.3240 C   0  0  0  0  0  0  0  0  0  0  0  0
  145.6940  130.8830  157.3520 O   0  0  0  0  0  0  0  0  0  0  0  0
  149.2390  137.1260  152.5480 N   0  0  0  0  0  0  0  0  0  0  0  0
  149.4240  138.3780  151.8230 C   0  0  2  0  0  0  0  0  0  0  0  0
  149.7770  138.1310  150.3660 C   0  0  0  0  0  0  0  0  0  0  0  0
  149.2380  138.7890  149.4660 O   0  0  0  0  0  0  0  0  0  0  0  0
  150.5220  139.2010  152.4830 C   0  0  0  0  0  0  0  0  0  0  0  0
  151.0150  140.1760  151.5880 O   0  0  0  0  0  0  0  0  0  0  0  0
  150.6970  137.1990  150.1190 N   0  0  0  0  0  0  0  0  0  0  0  0
  151.0880  136.8850  148.7530 C   0  0  2  0  0  0  0  0  0  0  0  0
  149.8950  136.4040  147.9490 C   0  0  0  0  0  0  0  0  0  0  0  0
  149.7430  136.7560  146.7750 O   0  0  0  0  0  0  0  0  0  0  0  0
  152.1790  135.8220  148.7540 C   0  0  0  0  0  0  0  0  0  0  0  0
  152.2670  135.0580  147.4790 C   0  0  0  0  0  0  0  0  0  0  0  0
  152.7870  135.6420  146.3470 C   0  0  0  0  0  0  0  0  0  0  0  0
  151.8160  133.7570  147.4100 C   0  0  0  0  0  0  0  0  0  0  0  0
  152.8640  134.9410  145.1730 C   0  0  0  0  0  0  0  0  0  0  0  0
  151.8880  133.0520  146.2370 C   0  0  0  0  0  0  0  0  0  0  0  0
  152.4130  133.6440  145.1160 C   0  0  0  0  0  0  0  0  0  0  0  0
  149.0240  135.6170  148.5750 N   0  0  0  0  0  0  0  0  0  0  0  0
  147.8430  135.1220  147.8830 C   0  0  2  0  0  0  0  0  0  0  0  0
  146.9150  136.2710  147.5450 C   0  0  0  0  0  0  0  0  0  0  0  0
  146.3090  136.3040  146.4670 O   0  0  0  0  0  0  0  0  0  0  0  0
  147.1250  134.0680  148.7360 C   0  0  0  0  0  0  0  0  0  0  0  0
  145.9730  133.4940  147.9660 C   0  0  0  0  0  0  0  0  0  0  0  0
  148.0810  132.9810  149.1530 C   0  0  0  0  0  0  0  0  0  0  0  0
  146.7790  137.2230  148.4650 N   0  0  0  0  0  0  0  0  0  0  0  0
  145.9200  138.3700  148.2220 C   0  0  2  0  0  0  0  0  0  0  0  0
  146.4290  139.1680  147.0360 C   0  0  0  0  0  0  0  0  0  0  0  0
  145.6630  139.5060  146.1260 O   0  0  0  0  0  0  0  0  0  0  0  0
  145.8470  139.2400  149.4720 C   0  0  2  0  0  0  0  0  0  0  0  0
  145.3430  138.4670  150.5660 O   0  0  0  0  0  0  0  0  0  0  0  0
  144.9350  140.4130  149.2430 C   0  0  0  0  0  0  0  0  0  0  0  0
  147.7350  139.4310  147.0020 N   0  0  0  0  0  0  0  0  0  0  0  0
  148.2950  140.1910  145.8940 C   0  0  2  0  0  0  0  0  0  0  0  0
  148.2060  139.4200  144.5870 C   0  0  0  0  0  0  0  0  0  0  0  0
  147.9730  140.0150  143.5310 O   0  0  0  0  0  0  0  0  0  0  0  0
  149.7450  140.5460  146.1840 C   0  0  0  0  0  0  0  0  0  0  0  0
  150.5550  139.3880  146.1520 O   0  0  0  0  0  0  0  0  0  0  0  0
  148.3400  138.0980  144.6400 N   0  0  0  0  0  0  0  0  0  0  0  0
  148.3180  137.3010  143.4220 C   0  0  2  0  0  0  0  0  0  0  0  0
  146.9180  137.2510  142.8290 C   0  0  0  0  0  0  0  0  0  0  0  0
  146.7380  137.4330  141.6170 O   0  0  0  0  0  0  0  0  0  0  0  0
  148.8190  135.8970  143.7300 C   0  0  0  0  0  0  0  0  0  0  0  0
  149.2640  135.0990  142.5300 C   0  0  0  0  0  0  0  0  0  0  0  0
  150.6100  135.5330  141.9910 C   0  0  0  0  0  0  0  0  0  0  0  0
  151.3920  136.1470  142.7420 O   0  0  0  0  0  0  0  0  0  0  0  0
  150.8930  135.2370  140.8140 O   0  0  0  0  0  0  0  0  0  0  0  0
  144.6700  139.4630  143.3830 N   0  0  0  0  0  0  0  0  0  0  0  0
  144.4100  140.8280  142.9580 C   0  0  2  0  0  0  0  0  0  0  0  0
  144.9980  141.0890  141.5830 C   0  0  0  0  0  0  0  0  0  0  0  0
  144.3650  141.7370  140.7450 O   0  0  0  0  0  0  0  0  0  0  0  0
  144.9810  141.7920  143.9910 C   0  0  0  0  0  0  0  0  0  0  0  0
  145.2240  143.1680  143.4670 C   0  0  0  0  0  0  0  0  0  0  0  0
  146.4700  143.7530  143.4750 N   0  0  0  0  0  0  0  0  0  0  0  0
  144.3850  144.0740  142.9180 C   0  0  0  0  0  0  0  0  0  0  0  0
  146.3870  144.9630  142.9540 C   0  0  0  0  0  0  0  0  0  0  0  0
  145.1330  145.1810  142.6050 N   0  0  0  0  0  0  0  0  0  0  0  0
  158.3420  146.1510  145.0880 N   0  0  0  0  0  0  0  0  0  0  0  0
  157.5620  145.6360  146.2060 C   0  0  2  0  0  0  0  0  0  0  0  0
  158.3830  144.6930  147.0790 C   0  0  0  0  0  0  0  0  0  0  0  0
  158.1300  144.6210  148.2840 O   0  0  0  0  0  0  0  0  0  0  0  0
  156.2540  144.9800  145.7150 C   0  0  0  0  0  0  0  0  0  0  0  0
  156.5000  143.7940  144.8230 C   0  0  0  0  0  0  0  0  0  0  0  0
  155.3960  144.5560  146.8870 C   0  0  0  0  0  0  0  0  0  0  0  0
  160.3540  147.1400  149.2690 N   0  0  0  0  0  0  0  0  0  0  0  0
  159.4290  147.7930  150.1850 C   0  0  2  0  0  0  0  0  0  0  0  0
  158.9780  146.8440  151.2850 C   0  0  0  0  0  0  0  0  0  0  0  0
  158.9400  147.2200  152.4610 O   0  0  0  0  0  0  0  0  0  0  0  0
  158.2260  148.3290  149.4210 C   0  0  0  0  0  0  0  0  0  0  0  0
  158.6450  145.6060  150.9260 N   0  0  0  0  0  0  0  0  0  0  0  0
  158.2250  144.6280  151.9140 C   0  0  2  0  0  0  0  0  0  0  0  0
  159.3420  144.3150  152.8900 C   0  0  0  0  0  0  0  0  0  0  0  0
  159.0790  144.0080  154.0570 O   0  0  0  0  0  0  0  0  0  0  0  0
  157.7690  143.3670  151.1950 C   0  0  0  0  0  0  0  0  0  0  0  0
  157.3590  142.2690  152.1060 C   0  0  0  0  0  0  0  0  0  0  0  0
  156.1920  142.3630  152.8290 C   0  0  0  0  0  0  0  0  0  0  0  0
  158.1330  141.1360  152.2310 C   0  0  0  0  0  0  0  0  0  0  0  0
  155.8080  141.3550  153.6660 C   0  0  0  0  0  0  0  0  0  0  0  0
  157.7540  140.1250  153.0660 C   0  0  0  0  0  0  0  0  0  0  0  0
  156.5860  140.2340  153.7880 C   0  0  0  0  0  0  0  0  0  0  0  0
  161.8220  146.5960  153.6330 N   0  0  0  0  0  0  0  0  0  0  0  0
  162.1510  147.8030  154.3640 C   0  0  0  0  0  0  0  0  0  0  0  0
  161.1110  148.2370  155.3650 C   0  0  0  0  0  0  0  0  0  0  0  0
  161.4410  148.9610  156.3070 O   0  0  0  0  0  0  0  0  0  0  0  0
  159.8690  147.8160  155.1880 N   0  0  0  0  0  0  0  0  0  0  0  0
  158.7870  148.2290  156.0650 C   0  0  2  0  0  0  0  0  0  0  0  0
  158.6970  147.3990  157.3370 C   0  0  0  0  0  0  0  0  0  0  0  0
  157.7440  147.5730  158.1020 O   0  0  0  0  0  0  0  0  0  0  0  0
  157.4600  148.1600  155.3120 C   0  0  0  0  0  0  0  0  0  0  0  0
  157.2500  149.1780  154.1950 C   0  0  0  0  0  0  0  0  0  0  0  0
  156.0650  148.7660  153.3610 C   0  0  0  0  0  0  0  0  0  0  0  0
  157.0440  150.5710  154.7360 C   0  0  0  0  0  0  0  0  0  0  0  0
  159.6530  146.5060  157.5870 N   0  0  0  0  0  0  0  0  0  0  0  0
  159.6420  145.7340  158.8220 C   0  0  2  0  0  0  0  0  0  0  0  0
  160.1710  146.5620  159.9830 C   0  0  0  0  0  0  0  0  0  0  0  0
  159.6110  146.5300  161.0840 O   0  0  0  0  0  0  0  0  0  0  0  0
  160.4630  144.4610  158.6550 C   0  0  2  0  0  0  0  0  0  0  0  0
  161.8460  144.7950  158.5150 O   0  0  0  0  0  0  0  0  0  0  0  0
  160.0060  143.7060  157.4330 C   0  0  0  0  0  0  0  0  0  0  0  0
  161.2520  147.3010  159.7510 N   0  0  0  0  0  0  0  0  0  0  0  0
  161.7920  148.2690  160.7010 C   0  0  2  0  0  0  0  0  0  0  0  0
  161.7540  149.6310  160.0220 C   0  0  0  0  0  0  0  0  0  0  0  0
  162.7320  150.0830  159.4250 O   0  0  0  0  0  0  0  0  0  0  0  0
  163.1920  147.8970  161.1300 C   0  0  0  0  0  0  0  0  0  0  0  0
  163.3980  146.4210  161.3770 C   0  0  0  0  0  0  0  0  0  0  0  0
  164.4990  146.1930  162.3970 C   0  0  0  0  0  0  0  0  0  0  0  0
  165.2640  144.9730  162.1630 N   0  0  0  0  0  0  0  0  0  0  0  0
  164.8150  143.7450  162.3990 C   0  0  0  0  0  0  0  0  0  0  0  0
  165.6000  142.7090  162.1640 N   0  0  0  0  0  0  0  0  0  0  0  0
  163.5850  143.5360  162.8450 N   0  0  0  0  0  0  0  0  0  0  0  0
  160.6010  150.2840  160.1050 N   0  0  0  0  0  0  0  0  0  0  0  0
  160.4420  151.6290  159.5720 C   0  0  2  0  0  0  0  0  0  0  0  0
  159.2280  152.2530  160.2340 C   0  0  0  0  0  0  0  0  0  0  0  0
  158.1640  151.6300  160.2870 O   0  0  0  0  0  0  0  0  0  0  0  0
  160.2710  151.6240  158.0520 C   0  0  2  0  0  0  0  0  0  0  0  0
  161.3780  150.9620  157.4380 O   0  0  0  0  0  0  0  0  0  0  0  0
  160.2010  153.0300  157.5280 C   0  0  0  0  0  0  0  0  0  0  0  0
  159.3870  153.4720  160.7300 N   0  0  0  0  0  0  0  0  0  0  0  0
  158.2900  154.1280  161.4140 C   0  0  2  0  0  0  0  0  0  0  0  0
  157.2950  154.6810  160.3990 C   0  0  0  0  0  0  0  0  0  0  0  0
  157.5820  154.8070  159.2070 O   0  0  0  0  0  0  0  0  0  0  0  0
  158.7980  155.2540  162.3050 C   0  0  2  0  0  0  0  0  0  0  0  0
  159.1380  156.3800  161.4960 O   0  0  0  0  0  0  0  0  0  0  0  0
  160.0210  154.8150  163.0770 C   0  0  0  0  0  0  0  0  0  0  0  0
  156.1080  155.0300  160.8930 N   0  0  0  0  0  0  0  0  0  0  0  0
  155.0790  155.5620  160.0230 C   0  0  0  0  0  0  0  0  0  0  0  0
  155.3870  156.9360  159.4730 C   0  0  0  0  0  0  0  0  0  0  0  0
  154.7800  157.3410  158.4760 O   0  0  0  0  0  0  0  0  0  0  0  0
  158.0380  156.7260  156.4510 N   0  0  0  0  0  0  0  0  0  0  0  0
  157.4430  156.2950  155.1920 C   0  0  2  0  0  0  0  0  0  0  0  0
  156.9640  157.4910  154.3770 C   0  0  0  0  0  0  0  0  0  0  0  0
  157.1600  157.5460  153.1530 O   0  0  0  0  0  0  0  0  0  0  0  0
  156.3000  155.3250  155.4690 C   0  0  0  0  0  0  0  0  0  0  0  0
  156.7690  154.0160  156.0680 C   0  0  0  0  0  0  0  0  0  0  0  0
  155.6470  153.1580  156.5840 C   0  0  0  0  0  0  0  0  0  0  0  0
  154.4800  153.3690  156.2600 O   0  0  0  0  0  0  0  0  0  0  0  0
  155.9950  152.1850  157.4080 N   0  0  0  0  0  0  0  0  0  0  0  0
  157.7460  155.3490  169.5980 N   0  0  0  0  0  0  0  0  0  0  0  0
  158.3270  154.0880  170.0280 C   0  0  2  0  0  0  0  0  0  0  0  0
  158.4440  153.0770  168.9000 C   0  0  0  0  0  0  0  0  0  0  0  0
  158.9340  151.9680  169.1380 O   0  0  0  0  0  0  0  0  0  0  0  0
  157.4940  153.4810  171.1530 C   0  0  0  0  0  0  0  0  0  0  0  0
  157.4250  154.3210  172.3930 C   0  0  0  0  0  0  0  0  0  0  0  0
  156.5850  153.6880  173.4660 C   0  0  0  0  0  0  0  0  0  0  0  0
  156.3300  152.4860  173.4470 O   0  0  0  0  0  0  0  0  0  0  0  0
  156.1460  154.4930  174.4130 N   0  0  0  0  0  0  0  0  0  0  0  0
  158.0090  153.4180  167.6910 N   0  0  0  0  0  0  0  0  0  0  0  0
  158.1090  152.4870  166.5820 C   0  0  2  0  0  0  0  0  0  0  0  0
  159.5710  152.2340  166.2560 C   0  0  0  0  0  0  0  0  0  0  0  0
  160.3640  153.1680  166.1190 O   0  0  0  0  0  0  0  0  0  0  0  0
  157.3770  153.0330  165.3600 C   0  0  0  0  0  0  0  0  0  0  0  0
  155.8870  153.2180  165.5700 C   0  0  0  0  0  0  0  0  0  0  0  0
  155.1890  153.8100  164.3610 C   0  0  0  0  0  0  0  0  0  0  0  0
  155.8790  154.1440  163.3760 O   0  0  0  0  0  0  0  0  0  0  0  0
  153.9480  153.9450  164.3950 O   0  0  0  0  0  0  0  0  0  0  0  0
  159.9290  150.9610  166.1430 N   0  0  0  0  0  0  0  0  0  0  0  0
  161.3150  150.6050  165.9190 C   0  0  2  0  0  0  0  0  0  0  0  0
  161.7650  151.0830  164.5470 C   0  0  0  0  0  0  0  0  0  0  0  0
  160.9660  151.2740  163.6280 O   0  0  0  0  0  0  0  0  0  0  0  0
  161.5130  149.0980  166.0460 C   0  0  0  0  0  0  0  0  0  0  0  0
  160.8160  148.2830  164.9740 C   0  0  0  0  0  0  0  0  0  0  0  0
  160.4880  146.8630  165.4080 C   0  0  0  0  0  0  0  0  0  0  0  0
  160.1140  146.6550  166.5810 O   0  0  0  0  0  0  0  0  0  0  0  0
  160.6030  145.9470  164.5690 O   0  0  0  0  0  0  0  0  0  0  0  0
  161.4470  138.9420  159.5280 N   0  0  0  0  0  0  0  0  0  0  0  0
  160.0420  139.3000  159.5520 C   0  0  2  0  0  0  0  0  0  0  0  0
  159.4690  138.9810  160.9220 C   0  0  0  0  0  0  0  0  0  0  0  0
  159.9000  138.0420  161.5960 O   0  0  0  0  0  0  0  0  0  0  0  0
  159.2800  138.5280  158.4840 C   0  0  0  0  0  0  0  0  0  0  0  0
  159.1160  139.1850  157.1210 C   0  0  0  0  0  0  0  0  0  0  0  0
  160.4290  139.6930  156.6070 C   0  0  0  0  0  0  0  0  0  0  0  0
  158.5750  138.1510  156.1850 C   0  0  0  0  0  0  0  0  0  0  0  0
  158.4900  139.7770  161.3410 N   0  0  0  0  0  0  0  0  0  0  0  0
  157.9140  139.5840  162.6650 C   0  0  2  0  0  0  0  0  0  0  0  0
  156.8860  138.4580  162.6600 C   0  0  0  0  0  0  0  0  0  0  0  0
  157.0570  137.4460  163.3470 O   0  0  0  0  0  0  0  0  0  0  0  0
  157.2920  140.8890  163.1640 C   0  0  0  0  0  0  0  0  0  0  0  0
  158.1570  142.1030  162.9450 C   0  0  0  0  0  0  0  0  0  0  0  0
  157.6000  143.2940  163.6790 C   0  0  0  0  0  0  0  0  0  0  0  0
  158.2610  144.5800  163.2470 C   0  0  0  0  0  0  0  0  0  0  0  0
  159.7280  144.4500  163.0820 N   0  0  0  0  0  0  0  0  0  0  0  0
  155.8260  138.6140  161.8670 N   0  0  0  0  0  0  0  0  0  0  0  0
  154.6900  137.7040  161.8670 C   0  0  2  0  0  0  0  0  0  0  0  0
  154.4350  137.0400  160.5260 C   0  0  0  0  0  0  0  0  0  0  0  0
  153.6430  136.0930  160.4720 O   0  0  0  0  0  0  0  0  0  0  0  0
  153.4080  138.4410  162.2850 C   0  0  0  0  0  0  0  0  0  0  0  0
  153.4810  139.2370  163.5850 C   0  0  0  0  0  0  0  0  0  0  0  0
  153.0460  138.4370  164.7850 C   0  0  0  0  0  0  0  0  0  0  0  0
  151.9660  137.8500  164.7940 O   0  0  0  0  0  0  0  0  0  0  0  0
  153.8900  138.4010  165.8070 N   0  0  0  0  0  0  0  0  0  0  0  0
  155.0720  137.4990  159.4540 N   0  0  0  0  0  0  0  0  0  0  0  0
  154.8310  136.9910  158.1130 C   0  0  2  0  0  0  0  0  0  0  0  0
  155.8740  135.9770  157.6650 C   0  0  0  0  0  0  0  0  0  0  0  0
  155.7810  135.4710  156.5440 O   0  0  0  0  0  0  0  0  0  0  0  0
  154.7980  138.1520  157.1170 C   0  0  0  0  0  0  0  0  0  0  0  0
  153.9120  139.3540  157.4400 C   0  0  0  0  0  0  0  0  0  0  0  0
  154.2210  140.4720  156.4930 C   0  0  0  0  0  0  0  0  0  0  0  0
  152.4520  138.9980  157.3500 C   0  0  0  0  0  0  0  0  0  0  0  0
  148.2970  136.3200  167.6090 N   0  0  0  0  0  0  0  0  0  0  0  0
  148.1120  137.7550  167.6900 C   0  0  0  0  0  0  0  0  0  0  0  0
  149.3970  138.5070  167.9420 C   0  0  0  0  0  0  0  0  0  0  0  0
  150.3990  138.3040  167.2530 O   0  0  0  0  0  0  0  0  0  0  0  0
  149.3710  139.3800  168.9410 N   0  0  0  0  0  0  0  0  0  0  0  0
  150.5400  140.1760  169.2770 C   0  0  2  0  0  0  0  0  0  0  0  0
  151.6130  139.3110  169.9200 C   0  0  0  0  0  0  0  0  0  0  0  0
  151.3270  138.4950  170.7990 O   0  0  0  0  0  0  0  0  0  0  0  0
  150.1460  141.3060  170.2200 C   0  0  0  0  0  0  0  0  0  0  0  0
  151.2950  142.1500  170.7600 C   0  0  0  0  0  0  0  0  0  0  0  0
  150.9360  143.6070  170.7080 C   0  0  0  0  0  0  0  0  0  0  0  0
  151.6270  141.7450  172.1690 C   0  0  0  0  0  0  0  0  0  0  0  0
  152.8560  139.5140  169.4960 N   0  0  0  0  0  0  0  0  0  0  0  0
  153.9650  138.7970  170.0850 C   0  0  0  0  0  0  0  0  0  0  0  0
  153.9240  137.3090  169.8690 C   0  0  0  0  0  0  0  0  0  0  0  0
  154.5110  136.5640  170.6570 O   0  0  0  0  0  0  0  0  0  0  0  0
  153.2380  136.8560  168.8220 N   0  0  0  0  0  0  0  0  0  0  0  0
  153.1200  135.4390  168.5170 C   0  0  2  0  0  0  0  0  0  0  0  0
  153.5150  135.1920  167.0690 C   0  0  0  0  0  0  0  0  0  0  0  0
  154.0240  136.0930  166.3960 O   0  0  0  0  0  0  0  0  0  0  0  0
  151.6980  134.9630  168.7980 C   0  0  0  0  0  0  0  0  0  0  0  0
  151.2440  135.2890  170.1970 C   0  0  0  0  0  0  0  0  0  0  0  0
  150.0520  134.1150  170.8480 S   0  0  0  0  0  0  0  0  0  0  0  0
  151.1670  132.9200  171.5670 C   0  0  0  0  0  0  0  0  0  0  0  0
  149.4030  136.3010  162.4910 N   0  0  0  0  0  0  0  0  0  0  0  0
  148.2960  137.2170  162.7030 C   0  0  2  0  0  0  0  0  0  0  0  0
  146.9790  136.4630  162.6530 C   0  0  0  0  0  0  0  0  0  0  0  0
  146.8140  135.5190  161.8770 O   0  0  0  0  0  0  0  0  0  0  0  0
  148.2920  138.3210  161.6490 C   0  0  0  0  0  0  0  0  0  0  0  0
  149.4330  139.3350  161.6610 C   0  0  0  0  0  0  0  0  0  0  0  0
  150.4760  138.9980  160.6300 C   0  0  0  0  0  0  0  0  0  0  0  0
  148.8940  140.7270  161.4110 C   0  0  0  0  0  0  0  0  0  0  0  0
  146.0400  136.8900  163.4850 N   0  0  0  0  0  0  0  0  0  0  0  0
  144.7330  136.2610  163.5480 C   0  0  2  0  0  0  0  0  0  0  0  0
  143.8680  136.7350  162.3940 C   0  0  0  0  0  0  0  0  0  0  0  0
  143.8770  137.9170  162.0380 O   0  0  0  0  0  0  0  0  0  0  0  0
  144.0580  136.5880  164.8740 C   0  0  0  0  0  0  0  0  0  0  0  0
  144.8150  135.8030  166.3110 S   0  0  0  0  0  0  0  0  0  0  0  0
  139.1420  146.6690  147.7300 N   0  0  0  0  0  0  0  0  0  0  0  0
  140.5540  147.0260  147.6460 C   0  0  2  0  0  0  0  0  0  0  0  0
  141.0780  146.8370  146.2340 C   0  0  0  0  0  0  0  0  0  0  0  0
  141.8010  147.6930  145.7080 O   0  0  0  0  0  0  0  0  0  0  0  0
  141.3680  146.1860  148.6250 C   0  0  0  0  0  0  0  0  0  0  0  0
  142.7640  145.9000  148.1630 C   0  0  0  0  0  0  0  0  0  0  0  0
  143.7200  146.8940  148.1290 C   0  0  0  0  0  0  0  0  0  0  0  0
  143.1230  144.6250  147.7820 C   0  0  0  0  0  0  0  0  0  0  0  0
  145.0020  146.6210  147.7090 C   0  0  0  0  0  0  0  0  0  0  0  0
  144.4010  144.3490  147.3650 C   0  0  0  0  0  0  0  0  0  0  0  0
  145.3410  145.3470  147.3280 C   0  0  0  0  0  0  0  0  0  0  0  0
  142.5120  149.6990  143.7110 N   0  0  0  0  0  0  0  0  0  0  0  0
  143.8680  149.6070  143.1810 C   0  0  2  0  0  0  0  0  0  0  0  0
  143.8780  149.5410  141.6610 C   0  0  0  0  0  0  0  0  0  0  0  0
  144.8050  150.0540  141.0220 O   0  0  0  0  0  0  0  0  0  0  0  0
  144.5750  148.3760  143.7440 C   0  0  0  0  0  0  0  0  0  0  0  0
  146.0830  148.5470  143.8420 C   0  0  0  0  0  0  0  0  0  0  0  0
  146.6150  149.6010  143.4390 O   0  0  0  0  0  0  0  0  0  0  0  0
  146.7470  147.6130  144.3340 O   0  0  0  0  0  0  0  0  0  0  0  0
  143.4530  152.9720  140.6530 N   0  0  0  0  0  0  0  0  0  0  0  0
  144.7000  153.6670  140.9480 C   0  0  2  0  0  0  0  0  0  0  0  0
  145.7000  153.4740  139.8180 C   0  0  0  0  0  0  0  0  0  0  0  0
  146.2440  154.4470  139.2860 O   0  0  0  0  0  0  0  0  0  0  0  0
  145.2590  153.1510  142.2770 C   0  0  0  0  0  0  0  0  0  0  0  0
  146.5790  153.7960  142.6790 C   0  0  0  0  0  0  0  0  0  0  0  0
  147.0970  154.6740  141.9680 O   0  0  0  0  0  0  0  0  0  0  0  0
  147.1110  153.4070  143.7380 O   0  0  0  0  0  0  0  0  0  0  0  0
  149.2710  161.7180  148.8060 N   0  0  0  0  0  0  0  0  0  0  0  0
  148.6510  160.7310  149.6820 C   0  0  2  0  0  0  0  0  0  0  0  0
  149.3070  160.6310  151.0500 C   0  0  0  0  0  0  0  0  0  0  0  0
  148.7210  160.0210  151.9490 O   0  0  0  0  0  0  0  0  0  0  0  0
  148.6650  159.3630  149.0030 C   0  0  0  0  0  0  0  0  0  0  0  0
  150.0080  158.6760  149.0110 C   0  0  0  0  0  0  0  0  0  0  0  0
  150.1000  157.5960  147.9530 C   0  0  0  0  0  0  0  0  0  0  0  0
  149.0880  157.0570  147.5140 O   0  0  0  0  0  0  0  0  0  0  0  0
  151.3120  157.3080  147.5030 N   0  0  0  0  0  0  0  0  0  0  0  0
  146.5940  160.9040  153.9480 N   0  0  0  0  0  0  0  0  0  0  0  0
  146.2840  159.7450  154.7710 C   0  0  2  0  0  0  0  0  0  0  0  0
  146.1490  160.1510  156.2300 C   0  0  0  0  0  0  0  0  0  0  0  0
  145.2610  159.6670  156.9410 O   0  0  0  0  0  0  0  0  0  0  0  0
  147.3660  158.6830  154.5970 C   0  0  0  0  0  0  0  0  0  0  0  0
  147.1340  157.6930  153.4580 C   0  0  0  0  0  0  0  0  0  0  0  0
  148.4070  156.9380  153.1580 C   0  0  0  0  0  0  0  0  0  0  0  0
  146.0190  156.7280  153.7910 C   0  0  0  0  0  0  0  0  0  0  0  0
  142.7760  159.8200  158.4630 N   0  0  0  0  0  0  0  0  0  0  0  0
  142.7640  159.0310  159.6850 C   0  0  2  0  0  0  0  0  0  0  0  0
  142.1010  159.7580  160.8480 C   0  0  0  0  0  0  0  0  0  0  0  0
  141.8910  159.1440  161.8970 O   0  0  0  0  0  0  0  0  0  0  0  0
  144.1970  158.6520  160.0850 C   0  0  0  0  0  0  0  0  0  0  0  0
  144.8820  157.5530  159.2770 C   0  0  0  0  0  0  0  0  0  0  0  0
  144.1740  156.7070  158.4270 C   0  0  0  0  0  0  0  0  0  0  0  0
  146.2570  157.3760  159.3660 C   0  0  0  0  0  0  0  0  0  0  0  0
  144.8150  155.7220  157.7040 C   0  0  0  0  0  0  0  0  0  0  0  0
  146.9040  156.3920  158.6410 C   0  0  0  0  0  0  0  0  0  0  0  0
  146.1770  155.5700  157.8130 C   0  0  0  0  0  0  0  0  0  0  0  0
  146.8160  154.5920  157.0920 O   0  0  0  0  0  0  0  0  0  0  0  0
  2  1  1  6
  3  2  1  0
  4  3  2  0
  5  2  1  0
  6  5  1  0
  8  7  1  1
  9  8  1  0
 10  9  2  0
 11  8  1  0
 12 11  1  0
 13 12  2  0
 14 12  1  0
 15  9  1  0
 16 15  1  6
 17 16  1  0
 18 17  2  0
 19 16  1  0
 20 19  1  0
 19 21  1  1
 23 22  1  0
 24 23  1  0
 25 24  2  0
 23 26  1  6
 27 24  1  0
 28 27  1  0
 29 28  1  0
 30 29  2  0
 28 31  1  1
 32 31  1  0
 33 32  1  0
 34 33  1  0
 35 34  1  0
 37 36  1  6
 38 37  1  0
 39 38  2  0
 40 37  1  0
 41 40  1  0
 42 41  1  0
 43 41  1  0
 44 38  1  0
 45 44  1  0
 46 45  1  0
 47 46  2  0
 45 48  1  6
 49 48  1  0
 50 49  2  0
 51 49  1  0
 53 52  1  1
 54 53  1  0
 55 54  2  0
 56 53  1  0
 57 56  1  0
 58 57  2  0
 59 57  1  0
 60 58  1  0
 61 59  2  0
 62 61  1  0
 62 60  2  0
 63 62  1  0
 64 54  1  0
 65 64  1  0
 66 65  1  0
 67 66  2  0
 65 68  1  1
 69 68  1  0
 70 66  1  0
 71 70  1  0
 72 71  1  0
 73 72  2  0
 71 74  1  1
 75 74  1  0
 76 75  2  0
 77 75  1  0
 78 76  1  0
 79 77  2  0
 80 79  1  0
 80 78  2  0
 81 72  1  0
 82 81  1  1
 83 82  1  0
 84 83  2  0
 85 82  1  0
 86 85  1  0
 87 85  1  0
 88 83  1  0
 89 88  1  1
 90 89  1  0
 91 90  2  0
 92 89  1  0
 93 92  1  0
 92 94  1  6
 95 90  1  0
 96 95  1  0
 97 96  1  0
 98 97  2  0
 96 99  1  1
100 99  1  0
101 97  1  0
102101  1  0
103102  1  0
104103  2  0
102105  1  1
106105  1  0
107106  1  0
108107  2  0
109107  1  0
111110  1  1
112111  1  0
113112  2  0
114111  1  0
115114  1  0
116115  1  0
117115  2  0
118116  2  0
119118  1  0
119117  1  0
121120  1  6
122121  1  0
123122  2  0
124121  1  0
125124  1  0
126124  1  0
128127  1  0
129128  1  0
130129  2  0
128131  1  6
132129  1  0
133132  1  0
134133  1  0
135134  2  0
133136  1  6
137136  1  0
138137  2  0
139137  1  0
140138  1  0
141139  2  0
142141  1  0
142140  2  0
144143  1  0
145144  1  0
146145  2  0
147145  1  0
148147  1  0
149148  1  0
150149  2  0
148151  1  6
152151  1  0
153152  1  0
154152  1  0
155149  1  0
156155  1  6
157156  1  0
158157  2  0
159156  1  0
160159  1  0
159161  1  6
162157  1  0
163162  1  0
164163  1  0
165164  2  0
163166  1  6
167166  1  0
168167  1  0
169168  1  0
170169  1  0
171170  1  0
172170  2  0
173164  1  0
174173  1  1
175174  1  0
176175  2  0
177174  1  0
178177  1  0
177179  1  6
180175  1  0
181180  1  6
182181  1  0
183182  2  0
184181  1  0
185184  1  0
184186  1  6
187182  1  0
188187  1  0
189188  1  0
190189  2  0
192191  1  1
193192  1  0
194193  2  0
195192  1  0
196195  1  0
197196  1  0
198197  2  0
199197  1  0
201200  1  6
202201  1  0
203202  2  0
204201  1  0
205204  1  0
206205  1  0
207206  2  0
208206  1  0
209202  1  0
210209  1  0
211210  1  0
212211  2  0
210213  1  6
214213  1  0
215214  1  0
216215  2  0
217215  1  0
218211  1  0
219218  1  0
220219  1  0
221220  2  0
219222  1  6
223222  1  0
224223  1  0
225224  2  0
226224  1  0
228227  1  1
229228  1  0
230229  2  0
231228  1  0
232231  1  0
233232  1  0
234232  1  0
235229  1  0
236235  1  0
237236  1  0
238237  2  0
236239  1  6
240239  1  0
241240  1  0
242241  1  0
243242  1  0
244237  1  0
245244  1  0
246245  1  0
247246  2  0
245248  1  6
249248  1  0
250249  1  0
251250  2  0
252250  1  0
253246  1  0
254253  1  0
255254  1  0
256255  2  0
254257  1  6
258257  1  0
259258  1  0
260258  1  0
262261  1  0
263262  1  0
264263  2  0
265263  1  0
266265  1  0
267266  1  0
268267  2  0
266269  1  1
270269  1  0
271270  1  0
272270  1  0
273267  1  0
274273  1  0
275274  1  0
276275  2  0
277275  1  0
278277  1  0
279278  1  0
280279  2  0
278281  1  6
282281  1  0
283282  1  0
284283  1  0
286285  1  6
287286  1  0
288287  2  0
289286  1  0
290289  1  0
291290  1  0
292290  1  0
293287  1  0
294293  1  0
295294  1  0
296295  2  0
294297  1  1
298297  1  0
300299  1  6
301300  1  0
302301  2  0
303300  1  0
304303  1  0
305304  2  0
306304  1  0
307305  1  0
308306  2  0
309308  1  0
309307  2  0
311310  1  1
312311  1  0
313312  2  0
314311  1  0
315314  1  0
316315  2  0
317315  1  0
319318  1  6
320319  1  0
321320  2  0
322319  1  0
323322  1  0
324323  2  0
325323  1  0
327326  1  6
328327  1  0
329328  2  0
330327  1  0
331330  1  0
332331  1  0
333332  2  0
334332  1  0
336335  1  6
337336  1  0
338337  2  0
339336  1  0
340339  1  0
341340  1  0
342340  1  0
344343  1  6
345344  1  0
346345  2  0
347344  1  0
348347  1  0
349348  2  0
350348  1  0
351349  1  0
352350  2  0
353351  2  0
353352  1  0
354353  1  0
M  END
$$$$
