
     RDKit          3D

139136  0  0  0  0  0  0  0  0999 V2000
  156.5400  121.7280  128.8130 N   0  0  0  0  0  0  0  0  0  0  0  0
  157.9570  121.7190  128.5010 C   0  0  2  0  0  0  0  0  0  0  0  0
  158.3640  120.4830  127.7190 C   0  0  0  0  0  0  0  0  0  0  0  0
  159.4350  120.4770  127.1040 O   0  0  0  0  0  0  0  0  0  0  0  0
  158.7640  121.8210  129.7880 C   0  0  0  0  0  0  0  0  0  0  0  0
  160.0460  122.5610  129.6270 C   0  0  0  0  0  0  0  0  0  0  0  0
  160.6360  122.9640  130.9390 C   0  0  0  0  0  0  0  0  0  0  0  0
  161.8300  123.7620  130.7360 N   0  0  0  0  0  0  0  0  0  0  0  0
  162.9770  123.2740  130.2890 C   0  0  0  0  0  0  0  0  0  0  0  0
  163.0940  121.9890  130.0100 N   0  0  0  0  0  0  0  0  0  0  0  0
  164.0120  124.0720  130.1210 N   0  0  0  0  0  0  0  0  0  0  0  0
  171.3880  128.7790  126.1990 N   0  0  0  0  0  0  0  0  0  0  0  0
  170.5950  129.2630  125.0780 C   0  0  2  0  0  0  0  0  0  0  0  0
  170.1820  130.7140  125.3160 C   0  0  0  0  0  0  0  0  0  0  0  0
  169.0120  131.0570  125.4590 O   0  0  0  0  0  0  0  0  0  0  0  0
  169.3940  128.3590  124.8670 C   0  0  0  0  0  0  0  0  0  0  0  0
  169.7850  127.0020  124.3850 C   0  0  0  0  0  0  0  0  0  0  0  0
  168.5960  126.1680  124.0930 C   0  0  0  0  0  0  0  0  0  0  0  0
  168.9520  124.9580  123.3740 N   0  0  0  0  0  0  0  0  0  0  0  0
  168.0670  124.1360  122.8350 C   0  0  0  0  0  0  0  0  0  0  0  0
  166.7800  124.3960  122.9390 N   0  0  0  0  0  0  0  0  0  0  0  0
  168.4660  123.0560  122.1950 N   0  0  0  0  0  0  0  0  0  0  0  0
  171.1990  131.5650  125.3560 N   0  0  0  0  0  0  0  0  0  0  0  0
  171.0380  132.9900  125.5840 C   0  0  2  0  0  0  0  0  0  0  0  0
  171.7590  133.7420  124.4830 C   0  0  0  0  0  0  0  0  0  0  0  0
  172.8960  133.4100  124.1400 O   0  0  0  0  0  0  0  0  0  0  0  0
  171.5920  133.4000  126.9450 C   0  0  0  0  0  0  0  0  0  0  0  0
  171.0390  132.6260  128.1050 C   0  0  0  0  0  0  0  0  0  0  0  0
  169.2470  132.5580  128.1480 S   0  0  0  0  0  0  0  0  0  0  0  0
  168.9110  134.1410  128.8880 C   0  0  0  0  0  0  0  0  0  0  0  0
  171.2370  138.7910  127.7460 N   0  0  0  0  0  0  0  0  0  0  0  0
  170.2580  138.9240  128.8100 C   0  0  2  0  0  0  0  0  0  0  0  0
  168.8730  138.4490  128.4030 C   0  0  0  0  0  0  0  0  0  0  0  0
  167.9700  138.4320  129.2450 O   0  0  0  0  0  0  0  0  0  0  0  0
  170.1850  140.3810  129.2640 C   0  0  0  0  0  0  0  0  0  0  0  0
  171.3510  140.8150  130.1270 C   0  0  0  0  0  0  0  0  0  0  0  0
  172.5640  141.2220  129.3140 C   0  0  0  0  0  0  0  0  0  0  0  0
  172.3910  141.8720  128.2630 O   0  0  0  0  0  0  0  0  0  0  0  0
  173.6950  140.8900  129.7280 O   0  0  0  0  0  0  0  0  0  0  0  0
  166.5630  135.3840  125.9300 N   0  0  0  0  0  0  0  0  0  0  0  0
  166.7030  134.0190  125.4190 C   0  0  2  0  0  0  0  0  0  0  0  0
  166.6900  133.9280  123.9040 C   0  0  0  0  0  0  0  0  0  0  0  0
  165.9120  134.5970  123.2220 O   0  0  0  0  0  0  0  0  0  0  0  0
  165.4790  133.3170  126.0070 C   0  0  0  0  0  0  0  0  0  0  0  0
  164.4920  134.3950  126.1180 C   0  0  0  0  0  0  0  0  0  0  0  0
  165.2630  135.5670  126.5880 C   0  0  0  0  0  0  0  0  0  0  0  0
  166.5790  130.4980  121.4220 N   0  0  0  0  0  0  0  0  0  0  0  0
  166.5860  129.0460  121.3140 C   0  0  2  0  0  0  0  0  0  0  0  0
  166.6990  128.5650  119.8740 C   0  0  0  0  0  0  0  0  0  0  0  0
  167.7470  128.0670  119.4700 O   0  0  0  0  0  0  0  0  0  0  0  0
  165.3200  128.4970  121.9560 C   0  0  0  0  0  0  0  0  0  0  0  0
  165.3570  128.4900  123.4180 C   0  0  0  0  0  0  0  0  0  0  0  0
  165.8230  129.4690  124.2260 C   0  0  0  0  0  0  0  0  0  0  0  0
  164.9070  127.4440  124.2690 C   0  0  0  0  0  0  0  0  0  0  0  0
  165.6950  129.1020  125.5350 N   0  0  0  0  0  0  0  0  0  0  0  0
  165.1330  127.8570  125.5870 C   0  0  0  0  0  0  0  0  0  0  0  0
  164.3330  126.1970  124.0450 C   0  0  0  0  0  0  0  0  0  0  0  0
  164.8060  127.0690  126.6720 C   0  0  0  0  0  0  0  0  0  0  0  0
  164.0120  125.4220  125.1180 C   0  0  0  0  0  0  0  0  0  0  0  0
  164.2470  125.8560  126.4160 C   0  0  0  0  0  0  0  0  0  0  0  0
  162.1270  131.9960  123.9430 N   0  0  0  0  0  0  0  0  0  0  0  0
  161.3330  131.1310  124.7970 C   0  0  2  0  0  0  0  0  0  0  0  0
  161.2660  131.6940  126.2020 C   0  0  0  0  0  0  0  0  0  0  0  0
  162.2560  132.1910  126.7470 O   0  0  0  0  0  0  0  0  0  0  0  0
  161.9110  129.7080  124.7960 C   0  0  0  0  0  0  0  0  0  0  0  0
  161.2980  128.8810  125.8680 C   0  0  0  0  0  0  0  0  0  0  0  0
  161.6670  129.0700  123.4840 C   0  0  0  0  0  0  0  0  0  0  0  0
  160.0790  131.6130  126.7860 N   0  0  0  0  0  0  0  0  0  0  0  0
  159.8730  131.8960  128.1950 C   0  0  2  0  0  0  0  0  0  0  0  0
  159.9600  130.5830  128.9550 C   0  0  0  0  0  0  0  0  0  0  0  0
  159.0650  129.7410  128.8550 O   0  0  0  0  0  0  0  0  0  0  0  0
  158.5240  132.5660  128.4150 C   0  0  0  0  0  0  0  0  0  0  0  0
  158.2260  133.6570  127.4420 C   0  0  0  0  0  0  0  0  0  0  0  0
  158.9550  134.8230  127.3880 N   0  0  0  0  0  0  0  0  0  0  0  0
  157.2750  133.7630  126.4870 C   0  0  0  0  0  0  0  0  0  0  0  0
  158.4690  135.5970  126.4360 C   0  0  0  0  0  0  0  0  0  0  0  0
  157.4490  134.9770  125.8760 N   0  0  0  0  0  0  0  0  0  0  0  0
  161.0360  130.4090  129.7080 N   0  0  0  0  0  0  0  0  0  0  0  0
  161.2640  129.2080  130.4910 C   0  0  2  0  0  0  0  0  0  0  0  0
  161.1690  129.5610  131.9640 C   0  0  0  0  0  0  0  0  0  0  0  0
  161.9610  130.3620  132.4680 O   0  0  0  0  0  0  0  0  0  0  0  0
  162.6230  128.5920  130.1690 C   0  0  0  0  0  0  0  0  0  0  0  0
  162.7560  127.1800  130.6820 C   0  0  0  0  0  0  0  0  0  0  0  0
  161.7370  126.6010  131.1030 O   0  0  0  0  0  0  0  0  0  0  0  0
  163.8820  126.6460  130.6670 O   0  0  0  0  0  0  0  0  0  0  0  0
  160.1940  128.9700  132.6400 N   0  0  0  0  0  0  0  0  0  0  0  0
  160.0710  129.0880  134.0730 C   0  0  0  0  0  0  0  0  0  0  0  0
  160.0630  127.7280  134.7220 C   0  0  0  0  0  0  0  0  0  0  0  0
  159.7050  127.5790  135.8920 O   0  0  0  0  0  0  0  0  0  0  0  0
  160.4570  126.7270  133.9560 N   0  0  0  0  0  0  0  0  0  0  0  0
  160.4900  125.3740  134.4380 C   0  0  0  0  0  0  0  0  0  0  0  0
  159.2080  124.6150  134.1700 C   0  0  0  0  0  0  0  0  0  0  0  0
  158.3700  124.9760  133.3400 O   0  0  0  0  0  0  0  0  0  0  0  0
  159.0710  123.5240  134.9100 N   0  0  0  0  0  0  0  0  0  0  0  0
  157.9670  122.5910  134.7690 C   0  0  2  0  0  0  0  0  0  0  0  0
  156.7550  122.9610  135.6040 C   0  0  0  0  0  0  0  0  0  0  0  0
  155.6810  122.3900  135.3940 O   0  0  0  0  0  0  0  0  0  0  0  0
  158.4380  121.1990  135.1600 C   0  0  0  0  0  0  0  0  0  0  0  0
  159.6250  120.7400  134.3740 C   0  0  0  0  0  0  0  0  0  0  0  0
  159.9030  119.2860  134.6110 C   0  0  0  0  0  0  0  0  0  0  0  0
  161.1200  118.8390  133.8500 C   0  0  0  0  0  0  0  0  0  0  0  0
  161.3630  117.3940  134.0210 N   0  0  0  0  0  0  0  0  0  0  0  0
  156.8980  123.8950  136.5330 N   0  0  0  0  0  0  0  0  0  0  0  0
  155.8330  124.2520  137.4530 C   0  0  2  0  0  0  0  0  0  0  0  0
  154.9220  125.3430  136.9170 C   0  0  0  0  0  0  0  0  0  0  0  0
  153.9070  125.6470  137.5510 O   0  0  0  0  0  0  0  0  0  0  0  0
  156.4330  124.6960  138.7820 C   0  0  2  0  0  0  0  0  0  0  0  0
  157.3610  125.7620  138.5590 O   0  0  0  0  0  0  0  0  0  0  0  0
  157.1530  123.5480  139.4190 C   0  0  0  0  0  0  0  0  0  0  0  0
  155.2550  125.9330  135.7750 N   0  0  0  0  0  0  0  0  0  0  0  0
  154.4130  126.9300  135.1390 C   0  0  2  0  0  0  0  0  0  0  0  0
  154.4420  126.6800  133.6380 C   0  0  0  0  0  0  0  0  0  0  0  0
  154.8950  125.6330  133.1700 O   0  0  0  0  0  0  0  0  0  0  0  0
  154.8670  128.3450  135.5130 C   0  0  2  0  0  0  0  0  0  0  0  0
  153.8970  129.2960  135.0670 O   0  0  0  0  0  0  0  0  0  0  0  0
  156.1910  128.6560  134.8900 C   0  0  0  0  0  0  0  0  0  0  0  0
  156.8530  139.4130  131.5930 N   0  0  0  0  0  0  0  0  0  0  0  0
  157.1290  139.0340  132.9670 C   0  0  2  0  0  0  0  0  0  0  0  0
  156.3040  137.7890  133.2530 C   0  0  0  0  0  0  0  0  0  0  0  0
  155.0720  137.8440  133.2720 O   0  0  0  0  0  0  0  0  0  0  0  0
  156.7780  140.1850  133.8980 C   0  0  0  0  0  0  0  0  0  0  0  0
  157.0260  139.8790  135.3390 C   0  0  0  0  0  0  0  0  0  0  0  0
  157.2570  138.7410  135.7340 O   0  0  0  0  0  0  0  0  0  0  0  0
  156.9740  140.9180  136.1460 N   0  0  0  0  0  0  0  0  0  0  0  0
  156.9870  136.6670  133.4600 N   0  0  0  0  0  0  0  0  0  0  0  0
  156.3150  135.3840  133.5760 C   0  0  2  0  0  0  0  0  0  0  0  0
  155.4900  135.2690  134.8440 C   0  0  0  0  0  0  0  0  0  0  0  0
  154.6780  134.3460  134.9560 O   0  0  0  0  0  0  0  0  0  0  0  0
  157.3430  134.2670  133.5370 C   0  0  0  0  0  0  0  0  0  0  0  0
  157.9780  134.0600  132.1910 C   0  0  0  0  0  0  0  0  0  0  0  0
  158.8750  132.5190  132.0980 S   0  0  0  0  0  0  0  0  0  0  0  0
  157.4920  131.4070  132.0150 C   0  0  0  0  0  0  0  0  0  0  0  0
  155.6780  136.1820  135.7880 N   0  0  0  0  0  0  0  0  0  0  0  0
  154.9700  136.1290  137.0560 C   0  0  2  0  0  0  0  0  0  0  0  0
  153.5410  136.6420  136.9380 C   0  0  0  0  0  0  0  0  0  0  0  0
  152.6580  136.1710  137.6620 O   0  0  0  0  0  0  0  0  0  0  0  0
  155.7530  136.9320  138.0900 C   0  0  2  0  0  0  0  0  0  0  0  0
  156.9900  136.2670  138.3680 O   0  0  0  0  0  0  0  0  0  0  0  0
  154.9770  137.0890  139.3640 C   0  0  0  0  0  0  0  0  0  0  0  0
  2  1  1  1
  3  2  1  0
  4  3  2  0
  5  2  1  0
  6  5  1  0
  7  6  1  0
  8  7  1  0
  9  8  1  0
 10  9  1  0
 11  9  2  0
 13 12  1  1
 14 13  1  0
 15 14  2  0
 16 13  1  0
 17 16  1  0
 18 17  1  0
 19 18  1  0
 20 19  1  0
 21 20  1  0
 22 20  2  0
 23 14  1  0
 24 23  1  0
 25 24  1  0
 26 25  2  0
 24 27  1  1
 28 27  1  0
 29 28  1  0
 30 29  1  0
 32 31  1  6
 33 32  1  0
 34 33  2  0
 35 32  1  0
 36 35  1  0
 37 36  1  0
 38 37  2  0
 39 37  1  0
 41 40  1  0
 41 42  1  6
 43 42  2  0
 44 41  1  0
 45 44  1  0
 46 45  1  0
 46 40  1  0
 48 47  1  6
 49 48  1  0
 50 49  2  0
 51 48  1  0
 52 51  1  0
 53 52  2  0
 54 52  1  0
 55 53  1  0
 56 54  2  0
 56 55  1  0
 57 54  1  0
 58 56  1  0
 59 57  2  0
 60 59  1  0
 60 58  2  0
 62 61  1  6
 63 62  1  0
 64 63  2  0
 65 62  1  0
 66 65  1  0
 67 65  1  0
 68 63  1  0
 69 68  1  0
 70 69  1  0
 71 70  2  0
 69 72  1  6
 73 72  1  0
 74 73  1  0
 75 73  2  0
 76 74  2  0
 77 75  1  0
 77 76  1  0
 78 70  1  0
 79 78  1  0
 80 79  1  0
 81 80  2  0
 79 82  1  1
 83 82  1  0
 84 83  2  0
 85 83  1  0
 86 80  1  0
 87 86  1  0
 88 87  1  0
 89 88  2  0
 90 88  1  0
 91 90  1  0
 92 91  1  0
 93 92  2  0
 94 92  1  0
 95 94  1  0
 96 95  1  0
 97 96  2  0
 95 98  1  1
 99 98  1  0
100 99  1  0
101100  1  0
102101  1  0
103 96  1  0
104103  1  6
105104  1  0
106105  2  0
107104  1  0
108107  1  0
107109  1  6
110105  1  0
111110  1  1
112111  1  0
113112  2  0
114111  1  0
115114  1  0
114116  1  6
118117  1  6
119118  1  0
120119  2  0
121118  1  0
122121  1  0
123122  2  0
124122  1  0
125119  1  0
126125  1  0
127126  1  0
128127  2  0
126129  1  1
130129  1  0
131130  1  0
132131  1  0
133127  1  0
134133  1  6
135134  1  0
136135  2  0
137134  1  0
138137  1  0
137139  1  1
M  END
$$$$
