
     RDKit          3D

 68 64  0  0  0  0  0  0  0  0999 V2000
  246.9690  223.1580  215.2730 N   0  0  0  0  0  0  0  0  0  0  0  0
  248.4050  223.1610  215.4220 C   0  0  2  0  0  0  0  0  0  0  0  0
  248.9380  224.0190  214.3010 C   0  0  0  0  0  0  0  0  0  0  0  0
  248.4420  223.9270  213.1880 O   0  0  0  0  0  0  0  0  0  0  0  0
  248.8980  221.7450  215.3890 C   0  0  0  0  0  0  0  0  0  0  0  0
  250.1750  221.6100  216.0600 C   0  0  0  0  0  0  0  0  0  0  0  0
  251.0270  222.4740  215.9630 O   0  0  0  0  0  0  0  0  0  0  0  0
  250.2790  220.5920  216.8770 N   0  0  0  0  0  0  0  0  0  0  0  0
  252.1480  224.1580  213.2730 N   0  0  0  0  0  0  0  0  0  0  0  0
  253.1770  223.4950  212.4950 C   0  0  2  0  0  0  0  0  0  0  0  0
  252.6300  222.4030  211.6010 C   0  0  0  0  0  0  0  0  0  0  0  0
  253.3900  221.8110  210.8460 O   0  0  0  0  0  0  0  0  0  0  0  0
  254.2170  222.9090  213.4240 C   0  0  2  0  0  0  0  0  0  0  0  0
  253.5750  222.0020  214.3120 O   0  0  0  0  0  0  0  0  0  0  0  0
  254.8320  223.9710  214.2390 C   0  0  0  0  0  0  0  0  0  0  0  0
  251.3600  222.1130  211.6890 N   0  0  0  0  0  0  0  0  0  0  0  0
  250.7070  221.0730  210.9340 C   0  0  2  0  0  0  0  0  0  0  0  0
  250.0400  221.7170  209.7320 C   0  0  0  0  0  0  0  0  0  0  0  0
  249.1050  222.5000  209.8960 O   0  0  0  0  0  0  0  0  0  0  0  0
  249.7160  220.3900  211.8580 C   0  0  0  0  0  0  0  0  0  0  0  0
  249.0030  219.2440  211.2520 C   0  0  0  0  0  0  0  0  0  0  0  0
  249.0460  219.0110  210.0870 O   0  0  0  0  0  0  0  0  0  0  0  0
  248.3170  218.5070  212.0800 N   0  0  0  0  0  0  0  0  0  0  0  0
  250.4890  221.3580  208.5260 N   0  0  0  0  0  0  0  0  0  0  0  0
  249.9890  221.9770  207.3090 C   0  0  2  0  0  0  0  0  0  0  0  0
  248.6690  221.4260  206.8580 C   0  0  0  0  0  0  0  0  0  0  0  0
  247.9740  222.1020  206.1090 O   0  0  0  0  0  0  0  0  0  0  0  0
  250.9590  221.7770  206.1800 C   0  0  0  0  0  0  0  0  0  0  0  0
  252.1610  222.5450  206.3890 C   0  0  0  0  0  0  0  0  0  0  0  0
  252.0940  223.6290  206.9390 O   0  0  0  0  0  0  0  0  0  0  0  0
  253.2780  222.0380  205.9330 N   0  0  0  0  0  0  0  0  0  0  0  0
  248.2920  220.2540  207.2820 N   0  0  0  0  0  0  0  0  0  0  0  0
  247.0120  219.7390  206.8520 C   0  0  2  0  0  0  0  0  0  0  0  0
  245.8460  220.2640  207.6620 C   0  0  0  0  0  0  0  0  0  0  0  0
  244.7850  219.6600  207.6660 O   0  0  0  0  0  0  0  0  0  0  0  0
  247.0220  218.2150  206.8970 C   0  0  0  0  0  0  0  0  0  0  0  0
  248.4470  227.0070  204.8860 N   0  0  0  0  0  0  0  0  0  0  0  0
  249.8380  227.3380  204.6440 C   0  0  2  0  0  0  0  0  0  0  0  0
  250.4780  226.3370  203.7070 C   0  0  0  0  0  0  0  0  0  0  0  0
  250.1890  225.1490  203.7720 O   0  0  0  0  0  0  0  0  0  0  0  0
  250.6160  227.3760  205.9290 C   0  0  0  0  0  0  0  0  0  0  0  0
  251.9190  228.0140  205.7540 C   0  0  0  0  0  0  0  0  0  0  0  0
  252.7510  227.8190  206.9230 C   0  0  0  0  0  0  0  0  0  0  0  0
  253.0900  226.4200  207.0590 N   0  0  0  0  0  0  0  0  0  0  0  0
  253.7250  225.9160  208.0970 C   0  0  0  0  0  0  0  0  0  0  0  0
  254.0720  226.7060  209.0790 N   0  0  0  0  0  0  0  0  0  0  0  0
  253.9900  224.6320  208.1560 N   0  0  0  0  0  0  0  0  0  0  0  0
  253.3600  224.0200  202.4640 N   0  0  0  0  0  0  0  0  0  0  0  0
  254.5040  223.3350  203.0080 C   0  0  0  0  0  0  0  0  0  0  0  0
  255.7090  223.5350  202.1290 C   0  0  0  0  0  0  0  0  0  0  0  0
  255.7490  224.4140  201.2700 O   0  0  0  0  0  0  0  0  0  0  0  0
  256.7050  222.7000  202.3230 N   0  0  0  0  0  0  0  0  0  0  0  0
  257.8340  222.8190  201.4450 C   0  0  0  0  0  0  0  0  0  0  0  0
  259.0130  223.4130  202.1480 C   0  0  0  0  0  0  0  0  0  0  0  0
  259.1110  223.3020  203.3660 O   0  0  0  0  0  0  0  0  0  0  0  0
  259.8530  224.1170  201.4030 N   0  0  0  0  0  0  0  0  0  0  0  0
  261.2520  224.2700  201.7580 C   0  0  2  0  0  0  0  0  0  0  0  0
  261.4680  225.0620  203.0370 C   0  0  0  0  0  0  0  0  0  0  0  0
  260.6290  225.8600  203.4580 O   0  0  0  0  0  0  0  0  0  0  0  0
  262.0150  224.9370  200.6290 C   0  0  0  0  0  0  0  0  0  0  0  0
  263.3600  225.1340  201.0020 O   0  0  0  0  0  0  0  0  0  0  0  0
  262.6090  224.7770  203.6720 N   0  0  0  0  0  0  0  0  0  0  0  0
  263.0200  225.3500  204.9490 C   0  0  2  0  0  0  0  0  0  0  0  0
  263.7940  226.6250  204.6920 C   0  0  0  0  0  0  0  0  0  0  0  0
  265.0260  226.6320  204.6660 O   0  0  0  0  0  0  0  0  0  0  0  0
  263.8820  224.3770  205.7270 C   0  0  2  0  0  0  0  0  0  0  0  0
  265.0180  224.0160  204.9340 O   0  0  0  0  0  0  0  0  0  0  0  0
  263.1000  223.1610  206.0730 C   0  0  0  0  0  0  0  0  0  0  0  0
  2  1  1  6
  3  2  1  0
  4  3  2  0
  5  2  1  0
  6  5  1  0
  7  6  2  0
  8  6  1  0
 10  9  1  1
 11 10  1  0
 12 11  2  0
 13 10  1  0
 14 13  1  0
 13 15  1  1
 16 11  1  0
 17 16  1  0
 18 17  1  0
 19 18  2  0
 17 20  1  1
 21 20  1  0
 22 21  2  0
 23 21  1  0
 24 18  1  0
 25 24  1  0
 26 25  1  0
 27 26  2  0
 25 28  1  6
 29 28  1  0
 30 29  2  0
 31 29  1  0
 32 26  1  0
 33 32  1  0
 34 33  1  0
 35 34  2  0
 33 36  1  1
 38 37  1  1
 39 38  1  0
 40 39  2  0
 41 38  1  0
 42 41  1  0
 43 42  1  0
 44 43  1  0
 45 44  1  0
 46 45  1  0
 47 45  2  0
 49 48  1  0
 50 49  1  0
 51 50  2  0
 52 50  1  0
 53 52  1  0
 54 53  1  0
 55 54  2  0
 56 54  1  0
 57 56  1  0
 58 57  1  0
 59 58  2  0
 57 60  1  6
 61 60  1  0
 62 58  1  0
 63 62  1  6
 64 63  1  0
 65 64  2  0
 66 63  1  0
 67 66  1  0
 66 68  1  6
M  END
$$$$
