
     RDKit          3D

 71 68  0  0  0  0  0  0  0  0999 V2000
   81.8490  120.4290  145.0870 N   0  0  0  0  0  0  0  0  0  0  0  0
   80.5910  121.1400  145.2750 C   0  0  2  0  0  0  0  0  0  0  0  0
   79.4640  120.5450  144.4690 C   0  0  0  0  0  0  0  0  0  0  0  0
   78.8660  121.2700  143.6790 O   0  0  0  0  0  0  0  0  0  0  0  0
   80.7170  122.6160  144.9050 C   0  0  0  0  0  0  0  0  0  0  0  0
   81.4230  123.4340  145.9420 C   0  0  0  0  0  0  0  0  0  0  0  0
   82.5680  123.8360  145.7380 O   0  0  0  0  0  0  0  0  0  0  0  0
   80.7430  123.7280  147.0490 N   0  0  0  0  0  0  0  0  0  0  0  0
   76.6770  119.9450  143.2680 N   0  0  0  0  0  0  0  0  0  0  0  0
   75.7100  120.6310  142.4310 C   0  0  2  0  0  0  0  0  0  0  0  0
   76.3380  121.5550  141.3900 C   0  0  0  0  0  0  0  0  0  0  0  0
   75.6490  122.0360  140.4860 O   0  0  0  0  0  0  0  0  0  0  0  0
   74.7800  121.4130  143.3390 C   0  0  2  0  0  0  0  0  0  0  0  0
   75.5590  122.3260  144.1150 O   0  0  0  0  0  0  0  0  0  0  0  0
   74.0860  120.4610  144.2790 C   0  0  0  0  0  0  0  0  0  0  0  0
   77.6350  121.8140  141.4950 N   0  0  0  0  0  0  0  0  0  0  0  0
   78.3500  122.6460  140.5340 C   0  0  2  0  0  0  0  0  0  0  0  0
   78.6950  121.7700  139.3360 C   0  0  0  0  0  0  0  0  0  0  0  0
   79.1730  120.6460  139.5030 O   0  0  0  0  0  0  0  0  0  0  0  0
   79.6020  123.2230  141.1880 C   0  0  0  0  0  0  0  0  0  0  0  0
   80.2410  124.3320  140.3930 C   0  0  0  0  0  0  0  0  0  0  0  0
   79.8030  124.6690  139.3050 O   0  0  0  0  0  0  0  0  0  0  0  0
   81.2870  124.9170  140.9490 N   0  0  0  0  0  0  0  0  0  0  0  0
   78.4410  122.2640  138.1250 N   0  0  0  0  0  0  0  0  0  0  0  0
   78.7710  121.4890  136.9330 C   0  0  2  0  0  0  0  0  0  0  0  0
   80.2600  121.4060  136.6480 C   0  0  0  0  0  0  0  0  0  0  0  0
   80.7400  120.3280  136.2920 O   0  0  0  0  0  0  0  0  0  0  0  0
   78.0700  122.0580  135.6990 C   0  0  0  0  0  0  0  0  0  0  0  0
   76.6500  121.6150  135.6070 C   0  0  0  0  0  0  0  0  0  0  0  0
   76.3470  120.4530  135.8330 O   0  0  0  0  0  0  0  0  0  0  0  0
   75.7580  122.5400  135.3060 N   0  0  0  0  0  0  0  0  0  0  0  0
   79.3200  116.2240  135.0980 N   0  0  0  0  0  0  0  0  0  0  0  0
   77.8720  116.3060  135.0590 C   0  0  2  0  0  0  0  0  0  0  0  0
   77.4740  117.4660  134.1560 C   0  0  0  0  0  0  0  0  0  0  0  0
   78.1460  118.5000  134.1460 O   0  0  0  0  0  0  0  0  0  0  0  0
   77.3620  116.4670  136.4950 C   0  0  0  0  0  0  0  0  0  0  0  0
   75.8800  116.5690  136.7460 C   0  0  0  0  0  0  0  0  0  0  0  0
   75.5020  118.0190  136.9210 C   0  0  0  0  0  0  0  0  0  0  0  0
   74.1260  118.1840  137.3490 N   0  0  0  0  0  0  0  0  0  0  0  0
   73.7730  118.3380  138.6070 C   0  0  0  0  0  0  0  0  0  0  0  0
   74.7120  118.3790  139.5400 N   0  0  0  0  0  0  0  0  0  0  0  0
   72.4960  118.4770  138.9240 N   0  0  0  0  0  0  0  0  0  0  0  0
   76.4070  117.2940  133.3620 N   0  0  0  0  0  0  0  0  0  0  0  0
   76.0570  118.3510  132.4100 C   0  0  2  0  0  0  0  0  0  0  0  0
   75.2100  119.4520  133.0340 C   0  0  0  0  0  0  0  0  0  0  0  0
   75.6660  120.5930  133.1450 O   0  0  0  0  0  0  0  0  0  0  0  0
   75.3520  117.7730  131.1880 C   0  0  0  0  0  0  0  0  0  0  0  0
   76.3140  117.1320  130.2210 C   0  0  0  0  0  0  0  0  0  0  0  0
   77.5180  117.4560  130.2880 O   0  0  0  0  0  0  0  0  0  0  0  0
   75.8620  116.3640  129.3550 O   0  0  0  0  0  0  0  0  0  0  0  0
   73.9860  119.1440  133.4350 N   0  0  0  0  0  0  0  0  0  0  0  0
   73.1570  120.0920  134.1660 C   0  0  0  0  0  0  0  0  0  0  0  0
   72.7300  121.4190  133.5520 C   0  0  0  0  0  0  0  0  0  0  0  0
   73.1890  122.4700  133.9940 O   0  0  0  0  0  0  0  0  0  0  0  0
   71.8830  121.4090  132.5320 N   0  0  0  0  0  0  0  0  0  0  0  0
   71.1940  122.6260  132.1630 C   0  0  0  0  0  0  0  0  0  0  0  0
   69.9340  122.7990  132.9880 C   0  0  0  0  0  0  0  0  0  0  0  0
   69.5720  121.9430  133.7940 O   0  0  0  0  0  0  0  0  0  0  0  0
   69.2370  123.9060  132.7800 N   0  0  0  0  0  0  0  0  0  0  0  0
   68.0370  124.1740  133.5720 C   0  0  2  0  0  0  0  0  0  0  0  0
   66.8000  123.6240  132.8660 C   0  0  0  0  0  0  0  0  0  0  0  0
   66.0950  124.3620  132.1670 O   0  0  0  0  0  0  0  0  0  0  0  0
   67.8800  125.6700  133.8270 C   0  0  0  0  0  0  0  0  0  0  0  0
   67.5330  126.3640  132.6460 O   0  0  0  0  0  0  0  0  0  0  0  0
   66.5370  122.3280  133.0280 N   0  0  0  0  0  0  0  0  0  0  0  0
   65.2600  121.7550  132.6170 C   0  0  2  0  0  0  0  0  0  0  0  0
   64.6760  121.0350  133.8170 C   0  0  0  0  0  0  0  0  0  0  0  0
   65.2950  120.9660  134.8780 O   0  0  0  0  0  0  0  0  0  0  0  0
   65.3750  120.7580  131.4650 C   0  0  2  0  0  0  0  0  0  0  0  0
   65.9710  119.5530  131.9460 O   0  0  0  0  0  0  0  0  0  0  0  0
   66.2110  121.3100  130.3500 C   0  0  0  0  0  0  0  0  0  0  0  0
  2  1  1  6
  3  2  1  0
  4  3  2  0
  5  2  1  0
  6  5  1  0
  7  6  2  0
  8  6  1  0
 10  9  1  1
 11 10  1  0
 12 11  2  0
 13 10  1  0
 14 13  1  0
 13 15  1  1
 16 11  1  0
 17 16  1  0
 18 17  1  0
 19 18  2  0
 17 20  1  1
 21 20  1  0
 22 21  2  0
 23 21  1  0
 24 18  1  0
 25 24  1  0
 26 25  1  0
 27 26  2  0
 25 28  1  6
 29 28  1  0
 30 29  2  0
 31 29  1  0
 33 32  1  1
 34 33  1  0
 35 34  2  0
 36 33  1  0
 37 36  1  0
 38 37  1  0
 39 38  1  0
 40 39  1  0
 41 40  1  0
 42 40  2  0
 43 34  1  0
 44 43  1  0
 45 44  1  0
 46 45  2  0
 44 47  1  6
 48 47  1  0
 49 48  2  0
 50 48  1  0
 51 45  1  0
 52 51  1  0
 53 52  1  0
 54 53  2  0
 55 53  1  0
 56 55  1  0
 57 56  1  0
 58 57  2  0
 59 57  1  0
 60 59  1  0
 61 60  1  0
 62 61  2  0
 60 63  1  6
 64 63  1  0
 65 61  1  0
 66 65  1  1
 67 66  1  0
 68 67  2  0
 69 66  1  0
 70 69  1  0
 69 71  1  6
M  END
$$$$
