
     RDKit          3D

 92 89  0  0  0  0  0  0  0  0999 V2000
  -23.6350  -15.2900   16.5520 N   0  0  0  0  0  0  0  0  0  0  0  0
  -23.2350  -16.5920   15.9420 C   0  0  2  0  0  0  0  0  0  0  0  0
  -24.5280  -17.3760   15.6410 C   0  0  0  0  0  0  0  0  0  0  0  0
  -24.4700  -18.5760   15.6480 O   0  0  0  0  0  0  0  0  0  0  0  0
  -22.2720  -17.4080   16.8170 C   0  0  0  0  0  0  0  0  0  0  0  0
  -20.9400  -16.7190   17.0340 C   0  0  0  0  0  0  0  0  0  0  0  0
  -20.6150  -15.7700   16.3050 O   0  0  0  0  0  0  0  0  0  0  0  0
  -20.1610  -17.1780   18.0240 N   0  0  0  0  0  0  0  0  0  0  0  0
  -25.6490  -16.6940   15.3810 N   0  0  0  0  0  0  0  0  0  0  0  0
  -26.9290  -17.3210   14.9910 C   0  0  0  0  0  0  0  0  0  0  0  0
  -27.6580  -17.9380   16.1750 C   0  0  0  0  0  0  0  0  0  0  0  0
  -27.0720  -18.0000   17.3040 O   0  0  0  0  0  0  0  0  0  0  0  0
  -28.8980  -18.3800   15.9690 N   0  0  0  0  0  0  0  0  0  0  0  0
  -29.6200  -19.1660   17.0060 C   0  0  2  0  0  0  0  0  0  0  0  0
  -28.8200  -20.4440   17.2800 C   0  0  0  0  0  0  0  0  0  0  0  0
  -28.7800  -20.8520   18.4340 O   0  0  0  0  0  0  0  0  0  0  0  0
  -31.0980  -19.4550   16.6740 C   0  0  0  0  0  0  0  0  0  0  0  0
  -31.2840  -20.5000   15.6030 C   0  0  0  0  0  0  0  0  0  0  0  0
  -31.8710  -19.8480   17.9420 C   0  0  0  0  0  0  0  0  0  0  0  0
  -28.1950  -21.0270   16.2640 N   0  0  0  0  0  0  0  0  0  0  0  0
  -27.2840  -22.1990   16.3670 C   0  0  2  0  0  0  0  0  0  0  0  0
  -26.1710  -21.9410   17.4110 C   0  0  0  0  0  0  0  0  0  0  0  0
  -25.8720  -22.8470   18.2050 O   0  0  0  0  0  0  0  0  0  0  0  0
  -26.7080  -22.5050   14.9840 C   0  0  0  0  0  0  0  0  0  0  0  0
  -27.7690  -22.8910   13.9530 C   0  0  0  0  0  0  0  0  0  0  0  0
  -28.6950  -21.7800   13.4160 C   0  0  0  0  0  0  0  0  0  0  0  0
  -28.3880  -20.5050   13.6380 O   0  0  0  0  0  0  0  0  0  0  0  0
  -29.7450  -22.1900   12.6920 O   0  0  0  0  0  0  0  0  0  0  0  0
  -25.5450  -20.7650   17.3850 N   0  0  0  0  0  0  0  0  0  0  0  0
  -24.4090  -20.4190   18.2580 C   0  0  0  0  0  0  0  0  0  0  0  0
  -24.8600  -19.8800   19.6190 C   0  0  0  0  0  0  0  0  0  0  0  0
  -23.9810  -19.4760   20.4100 O   0  0  0  0  0  0  0  0  0  0  0  0
  -36.8090  -25.5830   14.1370 N   0  0  0  0  0  0  0  0  0  0  0  0
  -36.1810  -25.0100   15.3480 C   0  0  2  0  0  0  0  0  0  0  0  0
  -37.1410  -25.1230   16.5510 C   0  0  0  0  0  0  0  0  0  0  0  0
  -36.6140  -25.2030   17.6620 O   0  0  0  0  0  0  0  0  0  0  0  0
  -35.7170  -23.5700   15.0970 C   0  0  0  0  0  0  0  0  0  0  0  0
  -34.9720  -22.9350   16.2660 C   0  0  0  0  0  0  0  0  0  0  0  0
  -33.6320  -23.6070   16.5140 C   0  0  0  0  0  0  0  0  0  0  0  0
  -34.7840  -21.4480   16.0590 C   0  0  0  0  0  0  0  0  0  0  0  0
  -28.0360  -12.0230   13.7900 N   0  0  0  0  0  0  0  0  0  0  0  0
  -28.2100  -13.1100   12.7720 C   0  0  2  0  0  0  0  0  0  0  0  0
  -29.1840  -14.2430   13.2840 C   0  0  0  0  0  0  0  0  0  0  0  0
  -28.9070  -15.4570   13.1550 O   0  0  0  0  0  0  0  0  0  0  0  0
  -26.8270  -13.6680   12.4190 C   0  0  0  0  0  0  0  0  0  0  0  0
  -25.8870  -12.5860   11.9060 C   0  0  0  0  0  0  0  0  0  0  0  0
  -26.2580  -11.7850   11.0570 O   0  0  0  0  0  0  0  0  0  0  0  0
  -24.6680  -12.5460   12.4300 N   0  0  0  0  0  0  0  0  0  0  0  0
  -30.3650  -13.8770   13.8380 N   0  0  0  0  0  0  0  0  0  0  0  0
  -31.2770  -14.8910   14.4150 C   0  0  2  0  0  0  0  0  0  0  0  0
  -31.8900  -15.8670   13.3870 C   0  0  0  0  0  0  0  0  0  0  0  0
  -32.4140  -16.8830   13.7820 O   0  0  0  0  0  0  0  0  0  0  0  0
  -32.3620  -14.0520   15.1200 C   0  0  0  0  0  0  0  0  0  0  0  0
  -32.3120  -12.6970   14.4310 C   0  0  0  0  0  0  0  0  0  0  0  0
  -30.8490  -12.5020   14.1180 C   0  0  0  0  0  0  0  0  0  0  0  0
  -31.7970  -15.5640   12.0930 N   0  0  0  0  0  0  0  0  0  0  0  0
  -32.3490  -16.4040   11.0130 C   0  0  0  0  0  0  0  0  0  0  0  0
  -33.8700  -16.4070   11.0190 C   0  0  0  0  0  0  0  0  0  0  0  0
  -34.4940  -15.7200   11.8930 O   0  0  0  0  0  0  0  0  0  0  0  0
  -34.4490  -17.2160   10.1390 N   0  0  0  0  0  0  0  0  0  0  0  0
  -35.8570  -17.1110    9.6940 C   0  0  2  0  0  0  0  0  0  0  0  0
  -36.8090  -17.7670   10.7150 C   0  0  0  0  0  0  0  0  0  0  0  0
  -38.0470  -17.5910   10.5870 O   0  0  0  0  0  0  0  0  0  0  0  0
  -36.0560  -17.7570    8.3130 C   0  0  2  0  0  0  0  0  0  0  0  0
  -35.4350  -19.0550    8.3530 O   0  0  0  0  0  0  0  0  0  0  0  0
  -35.4780  -16.9330    7.1810 C   0  0  0  0  0  0  0  0  0  0  0  0
  -36.2650  -18.6430   11.5830 N   0  0  0  0  0  0  0  0  0  0  0  0
  -37.1110  -19.5230   12.4350 C   0  0  2  0  0  0  0  0  0  0  0  0
  -37.3840  -18.8630   13.8040 C   0  0  0  0  0  0  0  0  0  0  0  0
  -37.9750  -19.5350   14.6900 O   0  0  0  0  0  0  0  0  0  0  0  0
  -36.5450  -20.9470   12.4920 C   0  0  0  0  0  0  0  0  0  0  0  0
  -36.9020  -21.7210   11.2360 C   0  0  0  0  0  0  0  0  0  0  0  0
  -37.9970  -21.5550   10.6760 O   0  0  0  0  0  0  0  0  0  0  0  0
  -35.9730  -22.5370   10.7720 N   0  0  0  0  0  0  0  0  0  0  0  0
  -24.4590   -0.0260    5.8120 N   0  0  0  0  0  0  0  0  0  0  0  0
  -23.6790   -0.4910    6.9890 C   0  0  2  0  0  0  0  0  0  0  0  0
  -22.5260   -1.3870    6.5170 C   0  0  0  0  0  0  0  0  0  0  0  0
  -22.7760   -2.2890    5.7310 O   0  0  0  0  0  0  0  0  0  0  0  0
  -24.5970   -1.2160    7.9560 C   0  0  0  0  0  0  0  0  0  0  0  0
  -23.8480   -2.0020    8.8730 O   0  0  0  0  0  0  0  0  0  0  0  0
  -21.3040   -1.1630    6.9950 N   0  0  0  0  0  0  0  0  0  0  0  0
  -20.1040   -1.8670    6.4980 C   0  0  0  0  0  0  0  0  0  0  0  0
  -19.5330   -2.8410    7.5110 C   0  0  0  0  0  0  0  0  0  0  0  0
  -20.2930   -3.3820    8.2860 O   0  0  0  0  0  0  0  0  0  0  0  0
  -18.2250   -3.0550    7.4880 N   0  0  0  0  0  0  0  0  0  0  0  0
  -17.5320   -4.1450    8.2210 C   0  0  2  0  0  0  0  0  0  0  0  0
  -17.0130   -3.6210    9.5610 C   0  0  0  0  0  0  0  0  0  0  0  0
  -16.8350   -2.3990    9.6940 O   0  0  0  0  0  0  0  0  0  0  0  0
  -16.3540   -4.6830    7.4060 C   0  0  0  0  0  0  0  0  0  0  0  0
  -16.7010   -5.2480    6.0290 C   0  0  0  0  0  0  0  0  0  0  0  0
  -17.7760   -5.9000    5.8660 O   0  0  0  0  0  0  0  0  0  0  0  0
  -15.8760   -5.0590    5.1360 O   0  0  0  0  0  0  0  0  0  0  0  0
  2  1  1  1
  3  2  1  0
  4  3  2  0
  5  2  1  0
  6  5  1  0
  7  6  2  0
  8  6  1  0
  9  3  1  0
 10  9  1  0
 11 10  1  0
 12 11  2  0
 13 11  1  0
 14 13  1  6
 15 14  1  0
 16 15  2  0
 17 14  1  0
 18 17  1  0
 19 17  1  0
 20 15  1  0
 21 20  1  0
 22 21  1  0
 23 22  2  0
 21 24  1  6
 25 24  1  0
 26 25  1  0
 27 26  2  0
 28 26  1  0
 29 22  1  0
 30 29  1  0
 31 30  1  0
 32 31  2  0
 34 33  1  6
 35 34  1  0
 36 35  2  0
 37 34  1  0
 38 37  1  0
 39 38  1  0
 40 38  1  0
 42 41  1  1
 43 42  1  0
 44 43  2  0
 45 42  1  0
 46 45  1  0
 47 46  2  0
 48 46  1  0
 49 43  1  0
 50 49  1  0
 50 51  1  6
 52 51  2  0
 53 50  1  0
 54 53  1  0
 55 54  1  0
 55 49  1  0
 56 51  1  0
 57 56  1  0
 58 57  1  0
 59 58  2  0
 60 58  1  0
 61 60  1  1
 62 61  1  0
 63 62  2  0
 64 61  1  0
 65 64  1  0
 64 66  1  6
 67 62  1  0
 68 67  1  0
 69 68  1  0
 70 69  2  0
 68 71  1  1
 72 71  1  0
 73 72  2  0
 74 72  1  0
 76 75  1  6
 77 76  1  0
 78 77  2  0
 79 76  1  0
 80 79  1  0
 81 77  1  0
 82 81  1  0
 83 82  1  0
 84 83  2  0
 85 83  1  0
 86 85  1  0
 87 86  1  0
 88 87  2  0
 86 89  1  6
 90 89  1  0
 91 90  2  0
 92 90  1  0
M  END
$$$$
