
     RDKit          3D

151147  0  0  0  0  0  0  0  0999 V2000
  178.7700  185.6450  161.3920 N   0  0  0  0  0  0  0  0  0  0  0  0
  178.4290  185.9130  162.7860 C   0  0  2  0  0  0  0  0  0  0  0  0
  177.3440  184.9680  163.2840 C   0  0  0  0  0  0  0  0  0  0  0  0
  177.2440  184.7020  164.4860 O   0  0  0  0  0  0  0  0  0  0  0  0
  177.9960  187.3710  162.9300 C   0  0  0  0  0  0  0  0  0  0  0  0
  177.5900  187.7560  164.3140 C   0  0  0  0  0  0  0  0  0  0  0  0
  178.3250  187.4150  165.4280 N   0  0  0  0  0  0  0  0  0  0  0  0
  176.5340  188.4710  164.7640 C   0  0  0  0  0  0  0  0  0  0  0  0
  177.7340  187.8970  166.5050 C   0  0  0  0  0  0  0  0  0  0  0  0
  176.6450  188.5420  166.1310 N   0  0  0  0  0  0  0  0  0  0  0  0
  178.7750  207.4040  165.2640 N   0  0  0  0  0  0  0  0  0  0  0  0
  178.3370  206.0630  165.6180 C   0  0  2  0  0  0  0  0  0  0  0  0
  179.0820  204.9850  164.8500 C   0  0  0  0  0  0  0  0  0  0  0  0
  179.0440  203.8200  165.2520 O   0  0  0  0  0  0  0  0  0  0  0  0
  176.8390  205.9170  165.3740 C   0  0  0  0  0  0  0  0  0  0  0  0
  179.7430  205.3400  163.7550 N   0  0  0  0  0  0  0  0  0  0  0  0
  180.4570  204.3780  162.9340 C   0  0  2  0  0  0  0  0  0  0  0  0
  181.8800  204.2210  163.4390 C   0  0  0  0  0  0  0  0  0  0  0  0
  182.5540  205.2110  163.7320 O   0  0  0  0  0  0  0  0  0  0  0  0
  180.4620  204.8220  161.4740 C   0  0  0  0  0  0  0  0  0  0  0  0
  179.0850  205.0730  160.9140 C   0  0  0  0  0  0  0  0  0  0  0  0
  178.2330  203.8280  160.9880 C   0  0  0  0  0  0  0  0  0  0  0  0
  176.8200  204.1110  160.5220 C   0  0  0  0  0  0  0  0  0  0  0  0
  175.9260  202.9540  160.7840 N   0  0  0  0  0  0  0  0  0  0  0  0
  182.3380  202.9760  163.5200 N   0  0  0  0  0  0  0  0  0  0  0  0
  183.6780  202.6870  163.9910 C   0  0  2  0  0  0  0  0  0  0  0  0
  184.7090  203.0690  162.9380 C   0  0  0  0  0  0  0  0  0  0  0  0
  184.3890  203.5190  161.8370 O   0  0  0  0  0  0  0  0  0  0  0  0
  183.8080  201.2120  164.3450 C   0  0  0  0  0  0  0  0  0  0  0  0
  183.0220  200.8440  165.5670 C   0  0  0  0  0  0  0  0  0  0  0  0
  182.6060  201.7080  166.3300 O   0  0  0  0  0  0  0  0  0  0  0  0
  182.8140  199.5520  165.7680 N   0  0  0  0  0  0  0  0  0  0  0  0
  186.2610  205.0010  177.2930 N   0  0  0  0  0  0  0  0  0  0  0  0
  185.4570  205.9580  178.0380 C   0  0  2  0  0  0  0  0  0  0  0  0
  184.5970  205.2640  179.0870 C   0  0  0  0  0  0  0  0  0  0  0  0
  184.7000  205.5660  180.2760 O   0  0  0  0  0  0  0  0  0  0  0  0
  184.5970  206.7750  177.0750 C   0  0  0  0  0  0  0  0  0  0  0  0
  184.2310  208.0060  177.6620 O   0  0  0  0  0  0  0  0  0  0  0  0
  183.7580  204.3280  178.6590 N   0  0  0  0  0  0  0  0  0  0  0  0
  182.9130  203.6220  179.6010 C   0  0  0  0  0  0  0  0  0  0  0  0
  182.4910  202.2940  179.0220 C   0  0  0  0  0  0  0  0  0  0  0  0
  182.9420  201.8820  177.9540 O   0  0  0  0  0  0  0  0  0  0  0  0
  181.6060  201.6290  179.7410 N   0  0  0  0  0  0  0  0  0  0  0  0
  181.1300  200.3160  179.3730 C   0  0  0  0  0  0  0  0  0  0  0  0
  181.4210  199.3070  180.4620 C   0  0  0  0  0  0  0  0  0  0  0  0
  181.9550  199.6300  181.5190 O   0  0  0  0  0  0  0  0  0  0  0  0
  181.0480  198.0680  180.1870 N   0  0  0  0  0  0  0  0  0  0  0  0
  181.3920  196.9890  181.0910 C   0  0  2  0  0  0  0  0  0  0  0  0
  182.7310  196.3970  180.6590 C   0  0  0  0  0  0  0  0  0  0  0  0
  183.4010  196.9260  179.7740 O   0  0  0  0  0  0  0  0  0  0  0  0
  180.2520  195.9790  181.1630 C   0  0  0  0  0  0  0  0  0  0  0  0
  179.8300  195.4770  179.8170 C   0  0  0  0  0  0  0  0  0  0  0  0
  180.3830  195.9350  178.8070 O   0  0  0  0  0  0  0  0  0  0  0  0
  178.9230  194.6250  179.7680 O   0  0  0  0  0  0  0  0  0  0  0  0
  183.9340  193.9820  178.9510 N   0  0  0  0  0  0  0  0  0  0  0  0
  184.2580  193.3880  177.6630 C   0  0  2  0  0  0  0  0  0  0  0  0
  184.5050  194.4130  176.5660 C   0  0  0  0  0  0  0  0  0  0  0  0
  184.8560  194.0230  175.4530 O   0  0  0  0  0  0  0  0  0  0  0  0
  183.1440  192.4400  177.2240 C   0  0  0  0  0  0  0  0  0  0  0  0
  183.1810  191.0850  177.8960 C   0  0  0  0  0  0  0  0  0  0  0  0
  182.1830  190.9690  179.0260 C   0  0  0  0  0  0  0  0  0  0  0  0
  181.8300  192.0080  179.6160 O   0  0  0  0  0  0  0  0  0  0  0  0
  181.7510  189.8380  179.3230 O   0  0  0  0  0  0  0  0  0  0  0  0
  184.3120  195.7000  176.8350 N   0  0  0  0  0  0  0  0  0  0  0  0
  184.5080  196.7290  175.8200 C   0  0  2  0  0  0  0  0  0  0  0  0
  185.4720  197.7790  176.3490 C   0  0  0  0  0  0  0  0  0  0  0  0
  186.2810  198.3430  175.6040 O   0  0  0  0  0  0  0  0  0  0  0  0
  183.1440  197.3110  175.4040 C   0  0  0  0  0  0  0  0  0  0  0  0
  183.2210  198.7460  174.9400 C   0  0  0  0  0  0  0  0  0  0  0  0
  182.5940  196.4770  174.2930 C   0  0  0  0  0  0  0  0  0  0  0  0
  180.4260  185.6430  179.2250 N   0  0  0  0  0  0  0  0  0  0  0  0
  179.1450  185.6690  178.5260 C   0  0  2  0  0  0  0  0  0  0  0  0
  179.3350  185.6240  177.0170 C   0  0  0  0  0  0  0  0  0  0  0  0
  178.6200  184.8930  176.3220 O   0  0  0  0  0  0  0  0  0  0  0  0
  178.3540  186.9040  178.9330 C   0  0  0  0  0  0  0  0  0  0  0  0
  176.8710  186.6590  178.9230 C   0  0  0  0  0  0  0  0  0  0  0  0
  176.3800  185.8140  178.1790 O   0  0  0  0  0  0  0  0  0  0  0  0
  176.1430  187.3880  179.7560 N   0  0  0  0  0  0  0  0  0  0  0  0
  180.2240  186.4750  176.4980 N   0  0  0  0  0  0  0  0  0  0  0  0
  180.8500  186.4120  175.1730 C   0  0  2  0  0  0  0  0  0  0  0  0
  179.9060  186.7620  174.0170 C   0  0  0  0  0  0  0  0  0  0  0  0
  180.3700  187.1130  172.9290 O   0  0  0  0  0  0  0  0  0  0  0  0
  181.4980  185.0190  174.9970 C   0  0  0  0  0  0  0  0  0  0  0  0
  182.2750  184.7390  173.7120 C   0  0  0  0  0  0  0  0  0  0  0  0
  183.5980  185.9120  173.3840 S   0  0  0  0  0  0  0  0  0  0  0  0
  184.8300  185.3930  174.5670 C   0  0  0  0  0  0  0  0  0  0  0  0
  178.5940  186.8140  174.2480 N   0  0  0  0  0  0  0  0  0  0  0  0
  177.6710  187.2410  173.2010 C   0  0  2  0  0  0  0  0  0  0  0  0
  176.5600  188.1350  173.7360 C   0  0  0  0  0  0  0  0  0  0  0  0
  175.7560  188.6340  172.9450 O   0  0  0  0  0  0  0  0  0  0  0  0
  177.0640  186.0380  172.4760 C   0  0  0  0  0  0  0  0  0  0  0  0
  178.0580  185.1700  171.7580 C   0  0  0  0  0  0  0  0  0  0  0  0
  178.3120  183.8610  172.0080 C   0  0  0  0  0  0  0  0  0  0  0  0
  178.9150  185.5450  170.6740 C   0  0  0  0  0  0  0  0  0  0  0  0
  179.2780  183.3940  171.1570 N   0  0  0  0  0  0  0  0  0  0  0  0
  179.6650  184.4100  170.3290 C   0  0  0  0  0  0  0  0  0  0  0  0
  179.1250  186.7310  169.9660 C   0  0  0  0  0  0  0  0  0  0  0  0
  180.6080  184.4230  169.3110 C   0  0  0  0  0  0  0  0  0  0  0  0
  180.0620  186.7410  168.9530 C   0  0  0  0  0  0  0  0  0  0  0  0
  180.7910  185.5950  168.6350 C   0  0  0  0  0  0  0  0  0  0  0  0
  176.5290  188.3580  175.0540 N   0  0  0  0  0  0  0  0  0  0  0  0
  175.4670  189.0840  175.7610 C   0  0  2  0  0  0  0  0  0  0  0  0
  174.0870  188.5200  175.4250 C   0  0  0  0  0  0  0  0  0  0  0  0
  173.2070  189.2070  174.9100 O   0  0  0  0  0  0  0  0  0  0  0  0
  175.5390  190.5880  175.4890 C   0  0  0  0  0  0  0  0  0  0  0  0
  174.8560  191.4530  176.5340 C   0  0  0  0  0  0  0  0  0  0  0  0
  175.4520  191.2990  177.9060 C   0  0  0  0  0  0  0  0  0  0  0  0
  174.9410  190.5520  178.7360 O   0  0  0  0  0  0  0  0  0  0  0  0
  176.5300  192.0200  178.1650 N   0  0  0  0  0  0  0  0  0  0  0  0
  186.8800  204.7090  167.7980 N   0  0  0  0  0  0  0  0  0  0  0  0
  185.6960  205.5430  167.6380 C   0  0  2  0  0  0  0  0  0  0  0  0
  186.0700  206.9540  168.0500 C   0  0  0  0  0  0  0  0  0  0  0  0
  186.5920  207.1510  169.1490 O   0  0  0  0  0  0  0  0  0  0  0  0
  184.5140  205.0880  168.5020 C   0  0  2  0  0  0  0  0  0  0  0  0
  184.7330  205.4980  169.8550 O   0  0  0  0  0  0  0  0  0  0  0  0
  184.3150  203.5890  168.4650 C   0  0  0  0  0  0  0  0  0  0  0  0
  185.0620  198.2870  171.1230 N   0  0  0  0  0  0  0  0  0  0  0  0
  184.7030  197.1310  170.3290 C   0  0  0  0  0  0  0  0  0  0  0  0
  183.2580  196.7200  170.4810 C   0  0  0  0  0  0  0  0  0  0  0  0
  182.9740  195.5320  170.6540 O   0  0  0  0  0  0  0  0  0  0  0  0
  182.3460  197.6970  170.4270 N   0  0  0  0  0  0  0  0  0  0  0  0
  180.9390  197.5170  170.7700 C   0  0  0  0  0  0  0  0  0  0  0  0
  180.1880  196.4500  169.9930 C   0  0  0  0  0  0  0  0  0  0  0  0
  179.1160  196.0240  170.4300 O   0  0  0  0  0  0  0  0  0  0  0  0
  180.7200  196.0070  168.8570 N   0  0  0  0  0  0  0  0  0  0  0  0
  180.1830  194.8700  168.1330 C   0  0  2  0  0  0  0  0  0  0  0  0
  181.2460  193.7870  168.0340 C   0  0  0  0  0  0  0  0  0  0  0  0
  182.4400  194.0460  168.1880 O   0  0  0  0  0  0  0  0  0  0  0  0
  179.7160  195.2690  166.7340 C   0  0  0  0  0  0  0  0  0  0  0  0
  178.5750  194.4170  166.2450 C   0  0  0  0  0  0  0  0  0  0  0  0
  178.4500  193.2720  166.7210 O   0  0  0  0  0  0  0  0  0  0  0  0
  177.7990  194.8910  165.3890 O   0  0  0  0  0  0  0  0  0  0  0  0
  180.7970  192.5610  167.7850 N   0  0  0  0  0  0  0  0  0  0  0  0
  181.6960  191.4260  167.6450 C   0  0  2  0  0  0  0  0  0  0  0  0
  181.9130  191.0270  166.1990 C   0  0  0  0  0  0  0  0  0  0  0  0
  182.6750  190.0950  165.9410 O   0  0  0  0  0  0  0  0  0  0  0  0
  181.1710  190.2170  168.4250 C   0  0  0  0  0  0  0  0  0  0  0  0
  181.4980  190.2350  169.9060 C   0  0  0  0  0  0  0  0  0  0  0  0
  183.2660  190.1830  170.2410 S   0  0  0  0  0  0  0  0  0  0  0  0
  183.2650  190.3090  172.0290 C   0  0  0  0  0  0  0  0  0  0  0  0
  181.2580  191.6910  165.2520 N   0  0  0  0  0  0  0  0  0  0  0  0
  181.4290  191.3910  163.8430 C   0  0  2  0  0  0  0  0  0  0  0  0
  182.3490  192.3760  163.1460 C   0  0  0  0  0  0  0  0  0  0  0  0
  182.6310  192.2060  161.9570 O   0  0  0  0  0  0  0  0  0  0  0  0
  180.0730  191.3540  163.1350 C   0  0  0  0  0  0  0  0  0  0  0  0
  179.5050  192.7090  162.8220 C   0  0  0  0  0  0  0  0  0  0  0  0
  178.0680  192.5910  162.3760 C   0  0  0  0  0  0  0  0  0  0  0  0
  177.2390  191.9790  163.4040 N   0  0  0  0  0  0  0  0  0  0  0  0
  175.9130  191.9570  163.3730 C   0  0  0  0  0  0  0  0  0  0  0  0
  175.2670  192.5150  162.3610 N   0  0  0  0  0  0  0  0  0  0  0  0
  175.2330  191.3810  164.3500 N   0  0  0  0  0  0  0  0  0  0  0  0
  2  1  1  6
  3  2  1  0
  4  3  2  0
  5  2  1  0
  6  5  1  0
  7  6  1  0
  8  6  2  0
  9  7  2  0
 10  9  1  0
 10  8  1  0
 12 11  1  0
 13 12  1  0
 14 13  2  0
 12 15  1  6
 16 13  1  0
 17 16  1  0
 18 17  1  0
 19 18  2  0
 17 20  1  6
 21 20  1  0
 22 21  1  0
 23 22  1  0
 24 23  1  0
 25 18  1  0
 26 25  1  0
 27 26  1  0
 28 27  2  0
 26 29  1  6
 30 29  1  0
 31 30  2  0
 32 30  1  0
 34 33  1  6
 35 34  1  0
 36 35  2  0
 37 34  1  0
 38 37  1  0
 39 35  1  0
 40 39  1  0
 41 40  1  0
 42 41  2  0
 43 41  1  0
 44 43  1  0
 45 44  1  0
 46 45  2  0
 47 45  1  0
 48 47  1  0
 49 48  1  0
 50 49  2  0
 48 51  1  6
 52 51  1  0
 53 52  2  0
 54 52  1  0
 56 55  1  1
 57 56  1  0
 58 57  2  0
 59 56  1  0
 60 59  1  0
 61 60  1  0
 62 61  2  0
 63 61  1  0
 64 57  1  0
 65 64  1  1
 66 65  1  0
 67 66  2  0
 68 65  1  0
 69 68  1  0
 70 68  1  0
 72 71  1  1
 73 72  1  0
 74 73  2  0
 75 72  1  0
 76 75  1  0
 77 76  2  0
 78 76  1  0
 79 73  1  0
 80 79  1  0
 81 80  1  0
 82 81  2  0
 80 83  1  6
 84 83  1  0
 85 84  1  0
 86 85  1  0
 87 81  1  0
 88 87  1  0
 89 88  1  0
 90 89  2  0
 88 91  1  1
 92 91  1  0
 93 92  2  0
 94 92  1  0
 95 93  1  0
 96 95  1  0
 96 94  2  0
 97 94  1  0
 98 96  1  0
 99 97  2  0
100 98  2  0
100 99  1  0
101 89  1  0
102101  1  0
103102  1  0
104103  2  0
102105  1  6
106105  1  0
107106  1  0
108107  2  0
109107  1  0
111110  1  1
112111  1  0
113112  2  0
114111  1  0
115114  1  0
114116  1  1
118117  1  0
119118  1  0
120119  2  0
121119  1  0
122121  1  0
123122  1  0
124123  2  0
125123  1  0
126125  1  0
127126  1  0
128127  2  0
126129  1  6
130129  1  0
131130  2  0
132130  1  0
133127  1  0
134133  1  0
135134  1  0
136135  2  0
134137  1  1
138137  1  0
139138  1  0
140139  1  0
141135  1  0
142141  1  0
143142  1  0
144143  2  0
142145  1  6
146145  1  0
147146  1  0
148147  1  0
149148  1  0
150149  1  0
151149  2  0
M  END
$$$$
