
     RDKit          3D

 84 79  0  0  0  0  0  0  0  0999 V2000
   68.1300   30.0090  320.3570 N   0  0  0  0  0  0  0  0  0  0  0  0
   69.3330   29.2010  320.4700 C   0  0  0  0  0  0  0  0  0  0  0  0
   68.9730   27.7500  320.7720 C   0  0  0  0  0  0  0  0  0  0  0  0
   67.8850   27.4350  321.2610 O   0  0  0  0  0  0  0  0  0  0  0  0
   72.1830   21.8350  322.8830 N   0  0  0  0  0  0  0  0  0  0  0  0
   71.6980   20.8990  321.8930 C   0  0  0  0  0  0  0  0  0  0  0  0
   70.1870   20.7950  321.8700 C   0  0  0  0  0  0  0  0  0  0  0  0
   69.6420   20.1060  321.0030 O   0  0  0  0  0  0  0  0  0  0  0  0
   69.5020   21.4940  322.7710 N   0  0  0  0  0  0  0  0  0  0  0  0
   68.0600   21.3560  322.9750 C   0  0  0  0  0  0  0  0  0  0  0  0
   67.4090   22.7330  323.1090 C   0  0  0  0  0  0  0  0  0  0  0  0
   68.0670   23.7640  323.0360 O   0  0  0  0  0  0  0  0  0  0  0  0
   66.1060   22.7500  323.3550 N   0  0  0  0  0  0  0  0  0  0  0  0
   65.2860   23.9290  323.0950 C   0  0  0  0  0  0  0  0  0  0  0  0
   65.3230   24.8320  324.3080 C   0  0  0  0  0  0  0  0  0  0  0  0
   64.4070   24.7970  325.1380 O   0  0  0  0  0  0  0  0  0  0  0  0
   66.3700   25.6510  324.3790 N   0  0  0  0  0  0  0  0  0  0  0  0
   66.4210   26.8570  325.1950 C   0  0  0  0  0  0  0  0  0  0  0  0
   66.6560   28.0160  324.2330 C   0  0  0  0  0  0  0  0  0  0  0  0
   67.8020   28.4250  324.0150 O   0  0  0  0  0  0  0  0  0  0  0  0
   57.8220   26.6520  316.3120 N   0  0  0  0  0  0  0  0  0  0  0  0
   58.5500   25.4270  316.5950 C   0  0  0  0  0  0  0  0  0  0  0  0
   58.2570   24.4020  315.5130 C   0  0  0  0  0  0  0  0  0  0  0  0
   57.2020   24.4330  314.8720 O   0  0  0  0  0  0  0  0  0  0  0  0
   59.1950   23.4770  315.3300 N   0  0  0  0  0  0  0  0  0  0  0  0
   59.0570   22.3840  314.3650 C   0  0  0  0  0  0  0  0  0  0  0  0
   58.3130   21.1910  314.9560 C   0  0  0  0  0  0  0  0  0  0  0  0
   58.7710   20.0510  314.9210 O   0  0  0  0  0  0  0  0  0  0  0  0
   57.1420   21.4710  315.5170 N   0  0  0  0  0  0  0  0  0  0  0  0
   56.3010   20.4890  316.1710 C   0  0  0  0  0  0  0  0  0  0  0  0
   55.0490   21.2170  316.6260 C   0  0  0  0  0  0  0  0  0  0  0  0
   54.9890   22.4530  316.6230 O   0  0  0  0  0  0  0  0  0  0  0  0
   54.0560   20.4370  317.0440 N   0  0  0  0  0  0  0  0  0  0  0  0
   52.7860   20.9760  317.4700 C   0  0  0  0  0  0  0  0  0  0  0  0
   52.8740   21.6120  318.8300 C   0  0  0  0  0  0  0  0  0  0  0  0
   53.8720   21.5130  319.5430 O   0  0  0  0  0  0  0  0  0  0  0  0
   53.7840   24.3140  320.7900 N   0  0  0  0  0  0  0  0  0  0  0  0
   54.6780   25.4370  320.5430 C   0  0  0  0  0  0  0  0  0  0  0  0
   55.0390   25.3680  319.0690 C   0  0  0  0  0  0  0  0  0  0  0  0
   56.0100   24.7070  318.6900 O   0  0  0  0  0  0  0  0  0  0  0  0
   62.1030   29.9230  323.7760 N   0  0  0  0  0  0  0  0  0  0  0  0
   61.3520   28.7160  323.4830 C   0  0  0  0  0  0  0  0  0  0  0  0
   61.9610   27.5590  324.2490 C   0  0  0  0  0  0  0  0  0  0  0  0
   63.1200   27.2000  324.0500 O   0  0  0  0  0  0  0  0  0  0  0  0
   61.1540   26.9710  325.1200 N   0  0  0  0  0  0  0  0  0  0  0  0
   61.5600   25.8280  325.9200 C   0  0  0  0  0  0  0  0  0  0  0  0
   60.9100   24.6130  325.2870 C   0  0  0  0  0  0  0  0  0  0  0  0
   59.7590   24.2830  325.5920 O   0  0  0  0  0  0  0  0  0  0  0  0
   61.6480   23.9530  324.4110 N   0  0  0  0  0  0  0  0  0  0  0  0
   61.1070   22.8800  323.5890 C   0  0  0  0  0  0  0  0  0  0  0  0
   62.1640   21.7920  323.5700 C   0  0  0  0  0  0  0  0  0  0  0  0
   63.3450   22.0660  323.8020 O   0  0  0  0  0  0  0  0  0  0  0  0
   61.7400   20.5540  323.3470 N   0  0  0  0  0  0  0  0  0  0  0  0
   62.6690   19.4360  323.3040 C   0  0  0  0  0  0  0  0  0  0  0  0
   62.2270   18.3920  322.2890 C   0  0  0  0  0  0  0  0  0  0  0  0
   61.0890   18.3970  321.8120 O   0  0  0  0  0  0  0  0  0  0  0  0
   63.1700   17.5210  321.9190 N   0  0  0  0  0  0  0  0  0  0  0  0
   62.8800   16.2960  321.1710 C   0  0  0  0  0  0  0  0  0  0  0  0
   62.5820   16.5460  319.6930 C   0  0  0  0  0  0  0  0  0  0  0  0
   62.2890   15.6260  318.9360 O   0  0  0  0  0  0  0  0  0  0  0  0
   62.8190   17.7680  319.2460 N   0  0  0  0  0  0  0  0  0  0  0  0
   62.2760   18.2790  317.9950 C   0  0  0  0  0  0  0  0  0  0  0  0
   63.4010   18.9790  317.2520 C   0  0  0  0  0  0  0  0  0  0  0  0
   64.5730   18.6460  317.4250 O   0  0  0  0  0  0  0  0  0  0  0  0
   63.0360   19.8520  316.3310 N   0  0  0  0  0  0  0  0  0  0  0  0
   64.0330   20.6850  315.6770 C   0  0  0  0  0  0  0  0  0  0  0  0
   64.3900   21.8860  316.5480 C   0  0  0  0  0  0  0  0  0  0  0  0
   63.5550   22.7560  316.8100 O   0  0  0  0  0  0  0  0  0  0  0  0
   65.6470   21.9230  317.0020 N   0  0  0  0  0  0  0  0  0  0  0  0
   66.2040   23.1670  317.5270 C   0  0  0  0  0  0  0  0  0  0  0  0
   66.3340   24.1940  316.4140 C   0  0  0  0  0  0  0  0  0  0  0  0
   66.1310   25.3950  316.6310 O   0  0  0  0  0  0  0  0  0  0  0  0
   66.6890   23.7430  315.2100 N   0  0  0  0  0  0  0  0  0  0  0  0
   66.5880   24.6020  314.0400 C   0  0  0  0  0  0  0  0  0  0  0  0
   65.1670   24.6300  313.5000 C   0  0  0  0  0  0  0  0  0  0  0  0
   64.8060   25.5520  312.7610 O   0  0  0  0  0  0  0  0  0  0  0  0
   64.3490   23.6350  313.8600 N   0  0  0  0  0  0  0  0  0  0  0  0
   62.9380   23.5850  313.4950 C   0  0  0  0  0  0  0  0  0  0  0  0
   62.1190   24.6880  314.1460 C   0  0  0  0  0  0  0  0  0  0  0  0
   61.0710   25.0590  313.6090 O   0  0  0  0  0  0  0  0  0  0  0  0
   62.5660   25.2160  315.2760 N   0  0  0  0  0  0  0  0  0  0  0  0
   62.0720   26.4870  315.7680 C   0  0  0  0  0  0  0  0  0  0  0  0
   62.5780   27.5810  314.8390 C   0  0  0  0  0  0  0  0  0  0  0  0
   63.6840   28.1020  314.9930 O   0  0  0  0  0  0  0  0  0  0  0  0
  2  1  1  0
  3  2  1  0
  4  3  2  0
  6  5  1  0
  7  6  1  0
  8  7  2  0
  9  7  1  0
 10  9  1  0
 11 10  1  0
 12 11  2  0
 13 11  1  0
 14 13  1  0
 15 14  1  0
 16 15  2  0
 17 15  1  0
 18 17  1  0
 19 18  1  0
 20 19  2  0
 22 21  1  0
 23 22  1  0
 24 23  2  0
 25 23  1  0
 26 25  1  0
 27 26  1  0
 28 27  2  0
 29 27  1  0
 30 29  1  0
 31 30  1  0
 32 31  2  0
 33 31  1  0
 34 33  1  0
 35 34  1  0
 36 35  2  0
 38 37  1  0
 39 38  1  0
 40 39  2  0
 42 41  1  0
 43 42  1  0
 44 43  2  0
 45 43  1  0
 46 45  1  0
 47 46  1  0
 48 47  2  0
 49 47  1  0
 50 49  1  0
 51 50  1  0
 52 51  2  0
 53 51  1  0
 54 53  1  0
 55 54  1  0
 56 55  2  0
 57 55  1  0
 58 57  1  0
 59 58  1  0
 60 59  2  0
 61 59  1  0
 62 61  1  0
 63 62  1  0
 64 63  2  0
 65 63  1  0
 66 65  1  0
 67 66  1  0
 68 67  2  0
 69 67  1  0
 70 69  1  0
 71 70  1  0
 72 71  2  0
 73 71  1  0
 74 73  1  0
 75 74  1  0
 76 75  2  0
 77 75  1  0
 78 77  1  0
 79 78  1  0
 80 79  2  0
 81 79  1  0
 82 81  1  0
 83 82  1  0
 84 83  2  0
M  END
$$$$
