
     RDKit          3D

127130  0  0  0  0  0  0  0  0999 V2000
  -37.7970  -26.3820    5.9990 N   0  0  0  0  0  0  0  0  0  0  0  0
  -38.7920  -27.0820    5.1980 C   0  0  2  0  0  0  0  0  0  0  0  0
  -40.2180  -26.6450    5.5100 C   0  0  0  0  0  0  0  0  0  0  0  0
  -41.0620  -26.6410    4.6070 O   0  0  0  0  0  0  0  0  0  0  0  0
  -38.6480  -28.5940    5.3940 C   0  0  0  0  0  0  0  0  0  0  0  0
  -37.2500  -29.1510    5.1030 C   0  0  0  0  0  0  0  0  0  0  0  0
  -37.2590  -30.6730    5.0840 C   0  0  0  0  0  0  0  0  0  0  0  0
  -36.7040  -28.5990    3.7900 C   0  0  0  0  0  0  0  0  0  0  0  0
  -40.5130  -26.2750    6.7600 N   0  0  0  0  0  0  0  0  0  0  0  0
  -41.8400  -25.7460    7.0630 C   0  0  2  0  0  0  0  0  0  0  0  0
  -42.0010  -24.3390    6.5060 C   0  0  0  0  0  0  0  0  0  0  0  0
  -43.0310  -24.0100    5.9040 O   0  0  0  0  0  0  0  0  0  0  0  0
  -42.0930  -25.6990    8.5730 C   0  0  0  0  0  0  0  0  0  0  0  0
  -41.5090  -26.8100    9.4140 C   0  0  0  0  0  0  0  0  0  0  0  0
  -41.5060  -28.1310    8.9830 C   0  0  0  0  0  0  0  0  0  0  0  0
  -40.9710  -26.5280   10.6640 C   0  0  0  0  0  0  0  0  0  0  0  0
  -40.9700  -29.1350    9.7730 C   0  0  0  0  0  0  0  0  0  0  0  0
  -40.4380  -27.5190   11.4560 C   0  0  0  0  0  0  0  0  0  0  0  0
  -40.4380  -28.8200   11.0090 C   0  0  0  0  0  0  0  0  0  0  0  0
  -39.9010  -29.8020   11.8050 O   0  0  0  0  0  0  0  0  0  0  0  0
  -40.9850  -23.4950    6.7040 N   0  0  0  0  0  0  0  0  0  0  0  0
  -41.1360  -22.0610    6.4910 C   0  0  2  0  0  0  0  0  0  0  0  0
  -41.1600  -21.7000    5.0120 C   0  0  0  0  0  0  0  0  0  0  0  0
  -41.8430  -20.7450    4.6240 O   0  0  0  0  0  0  0  0  0  0  0  0
  -40.0050  -21.3170    7.1990 C   0  0  0  0  0  0  0  0  0  0  0  0
  -39.9790  -21.5830    8.6920 C   0  0  0  0  0  0  0  0  0  0  0  0
  -40.7050  -22.4410    9.1960 O   0  0  0  0  0  0  0  0  0  0  0  0
  -39.1300  -20.8540    9.4080 N   0  0  0  0  0  0  0  0  0  0  0  0
  -40.4280  -22.4360    4.1810 N   0  0  0  0  0  0  0  0  0  0  0  0
  -40.3520  -22.1210    2.7600 C   0  0  2  0  0  0  0  0  0  0  0  0
  -41.7120  -22.3300    2.1030 C   0  0  0  0  0  0  0  0  0  0  0  0
  -42.2440  -23.4450    2.0990 O   0  0  0  0  0  0  0  0  0  0  0  0
  -39.2900  -22.9830    2.0830 C   0  0  0  0  0  0  0  0  0  0  0  0
  -38.0030  -22.7220    2.6150 O   0  0  0  0  0  0  0  0  0  0  0  0
  -42.2720  -21.2560    1.5500 N   0  0  0  0  0  0  0  0  0  0  0  0
  -43.5310  -21.3200    0.8210 C   0  0  2  0  0  0  0  0  0  0  0  0
  -43.3560  -21.8110   -0.6100 C   0  0  0  0  0  0  0  0  0  0  0  0
  -44.3200  -21.7820   -1.3830 O   0  0  0  0  0  0  0  0  0  0  0  0
  -44.2100  -19.9480    0.8210 C   0  0  0  0  0  0  0  0  0  0  0  0
  -42.1520  -22.2540   -0.9760 N   0  0  0  0  0  0  0  0  0  0  0  0
  -41.9020  -22.7390   -2.3270 C   0  0  2  0  0  0  0  0  0  0  0  0
  -42.5690  -24.0810   -2.5970 C   0  0  0  0  0  0  0  0  0  0  0  0
  -42.7990  -24.4200   -3.7630 O   0  0  0  0  0  0  0  0  0  0  0  0
  -40.3960  -22.8490   -2.5710 C   0  0  0  0  0  0  0  0  0  0  0  0
  -39.7430  -23.4330   -1.4570 O   0  0  0  0  0  0  0  0  0  0  0  0
  -42.8860  -24.8470   -1.5550 N   0  0  0  0  0  0  0  0  0  0  0  0
  -43.4660  -26.1730   -1.7250 C   0  0  2  0  0  0  0  0  0  0  0  0
  -44.9710  -26.0560   -1.9390 C   0  0  0  0  0  0  0  0  0  0  0  0
  -45.6800  -25.4840   -1.1050 O   0  0  0  0  0  0  0  0  0  0  0  0
  -43.1620  -27.0440   -0.5090 C   0  0  0  0  0  0  0  0  0  0  0  0
  -41.7020  -27.1160   -0.1630 C   0  0  0  0  0  0  0  0  0  0  0  0
  -40.7430  -27.2320   -1.1560 C   0  0  0  0  0  0  0  0  0  0  0  0
  -41.2880  -27.0650    1.1580 C   0  0  0  0  0  0  0  0  0  0  0  0
  -39.3990  -27.2980   -0.8380 C   0  0  0  0  0  0  0  0  0  0  0  0
  -39.9450  -27.1300    1.4830 C   0  0  0  0  0  0  0  0  0  0  0  0
  -39.0000  -27.2470    0.4840 C   0  0  0  0  0  0  0  0  0  0  0  0
  -45.4570  -26.5990   -3.0560 N   0  0  0  0  0  0  0  0  0  0  0  0
  -46.8880  -26.6240   -3.3280 C   0  0  2  0  0  0  0  0  0  0  0  0
  -47.5980  -27.7790   -2.6370 C   0  0  0  0  0  0  0  0  0  0  0  0
  -48.8330  -27.7910   -2.6000 O   0  0  0  0  0  0  0  0  0  0  0  0
  -47.1390  -26.6970   -4.8380 C   0  0  0  0  0  0  0  0  0  0  0  0
  -47.1790  -28.0410   -5.2860 O   0  0  0  0  0  0  0  0  0  0  0  0
  -46.8550  -28.7430   -2.0970 N   0  0  0  0  0  0  0  0  0  0  0  0
  -47.4360  -29.8770   -1.3920 C   0  0  2  0  0  0  0  0  0  0  0  0
  -46.4380  -30.3520   -0.3460 C   0  0  0  0  0  0  0  0  0  0  0  0
  -45.2590  -30.5420   -0.6550 O   0  0  0  0  0  0  0  0  0  0  0  0
  -47.7900  -31.0150   -2.3590 C   0  0  2  0  0  0  0  0  0  0  0  0
  -48.9850  -30.6830   -3.0770 O   0  0  0  0  0  0  0  0  0  0  0  0
  -48.0070  -32.3190   -1.6040 C   0  0  0  0  0  0  0  0  0  0  0  0
  -46.9130  -30.5340    0.8870 N   0  0  0  0  0  0  0  0  0  0  0  0
  -46.0540  -30.9480    2.0000 C   0  0  2  0  0  0  0  0  0  0  0  0
  -46.8940  -31.8570    2.9000 C   0  0  0  0  0  0  0  0  0  0  0  0
  -47.6020  -31.3850    3.7920 O   0  0  0  0  0  0  0  0  0  0  0  0
  -45.5190  -29.7370    2.7500 C   0  0  0  0  0  0  0  0  0  0  0  0
  -44.2580  -29.9990    3.5250 C   0  0  0  0  0  0  0  0  0  0  0  0
  -44.2400  -30.9080    4.5690 C   0  0  0  0  0  0  0  0  0  0  0  0
  -43.0890  -29.3250    3.2110 C   0  0  0  0  0  0  0  0  0  0  0  0
  -43.0790  -31.1380    5.2840 C   0  0  0  0  0  0  0  0  0  0  0  0
  -41.9260  -29.5550    3.9210 C   0  0  0  0  0  0  0  0  0  0  0  0
  -41.9210  -30.4630    4.9580 C   0  0  0  0  0  0  0  0  0  0  0  0
  -46.8000  -33.1630    2.6560 N   0  0  0  0  0  0  0  0  0  0  0  0
  -47.6230  -34.1640    3.3360 C   0  0  2  0  0  0  0  0  0  0  0  0
  -46.7300  -35.1060    4.1350 C   0  0  0  0  0  0  0  0  0  0  0  0
  -46.1570  -36.0490    3.5790 O   0  0  0  0  0  0  0  0  0  0  0  0
  -48.4650  -34.9520    2.3370 C   0  0  0  0  0  0  0  0  0  0  0  0
  -49.6860  -34.2360    1.8040 C   0  0  0  0  0  0  0  0  0  0  0  0
  -50.5080  -35.1920    0.9530 C   0  0  0  0  0  0  0  0  0  0  0  0
  -51.8970  -34.6540    0.6740 C   0  0  0  0  0  0  0  0  0  0  0  0
  -52.7500  -35.6820    0.0150 N   0  0  0  0  0  0  0  0  0  0  0  0
  -46.6170  -34.8640    5.4370 N   0  0  0  0  0  0  0  0  0  0  0  0
  -45.9990  -35.8260    6.3370 C   0  0  2  0  0  0  0  0  0  0  0  0
  -47.0540  -36.8150    6.8120 C   0  0  0  0  0  0  0  0  0  0  0  0
  -48.2120  -36.4460    7.0330 O   0  0  0  0  0  0  0  0  0  0  0  0
  -45.3450  -35.1280    7.5300 C   0  0  0  0  0  0  0  0  0  0  0  0
  -43.9310  -34.0830    7.1050 S   0  0  0  0  0  0  0  0  0  0  0  0
  -46.6510  -38.0750    6.9590 N   0  0  0  0  0  0  0  0  0  0  0  0
  -47.5930  -39.1460    7.2590 C   0  0  2  0  0  0  0  0  0  0  0  0
  -47.3480  -39.7960    8.6100 C   0  0  0  0  0  0  0  0  0  0  0  0
  -48.2790  -39.9060    9.4160 O   0  0  0  0  0  0  0  0  0  0  0  0
  -47.5480  -40.2040    6.1430 C   0  0  0  0  0  0  0  0  0  0  0  0
  -48.3420  -39.8070    4.9190 C   0  0  0  0  0  0  0  0  0  0  0  0
  -47.8990  -38.7920    4.0810 C   0  0  0  0  0  0  0  0  0  0  0  0
  -49.5360  -40.4410    4.6040 C   0  0  0  0  0  0  0  0  0  0  0  0
  -48.6230  -38.4190    2.9650 C   0  0  0  0  0  0  0  0  0  0  0  0
  -50.2690  -40.0730    3.4910 C   0  0  0  0  0  0  0  0  0  0  0  0
  -49.8060  -39.0640    2.6740 C   0  0  0  0  0  0  0  0  0  0  0  0
  -50.5310  -38.6960    1.5640 O   0  0  0  0  0  0  0  0  0  0  0  0
  -43.9940  -33.2400   11.7170 N   0  0  0  0  0  0  0  0  0  0  0  0
  -42.7050  -32.6210   11.3690 C   0  0  2  0  0  0  0  0  0  0  0  0
  -42.2860  -31.5250   12.3290 C   0  0  0  0  0  0  0  0  0  0  0  0
  -41.0850  -31.3450   12.5620 O   0  0  0  0  0  0  0  0  0  0  0  0
  -42.9520  -32.0740    9.9560 C   0  0  0  0  0  0  0  0  0  0  0  0
  -44.4240  -31.8880    9.8780 C   0  0  0  0  0  0  0  0  0  0  0  0
  -45.0150  -33.0060   10.6840 C   0  0  0  0  0  0  0  0  0  0  0  0
  -43.2430  -30.7830   12.8940 N   0  0  0  0  0  0  0  0  0  0  0  0
  -42.8950  -29.6710   13.7740 C   0  0  2  0  0  0  0  0  0  0  0  0
  -42.0780  -30.1430   14.9720 C   0  0  0  0  0  0  0  0  0  0  0  0
  -41.1180  -29.4770   15.3780 O   0  0  0  0  0  0  0  0  0  0  0  0
  -44.1610  -28.9420   14.2330 C   0  0  2  0  0  0  0  0  0  0  0  0
  -43.8410  -28.0550   15.3130 O   0  0  0  0  0  0  0  0  0  0  0  0
  -45.2260  -29.9330   14.6890 C   0  0  0  0  0  0  0  0  0  0  0  0
  -42.4600  -38.3600    4.9610 N   0  0  0  0  0  0  0  0  0  0  0  0
  -43.0740  -37.1420    4.4580 C   0  0  2  0  0  0  0  0  0  0  0  0
  -42.8770  -37.0600    2.9510 C   0  0  0  0  0  0  0  0  0  0  0  0
  -41.9660  -37.6730    2.3890 O   0  0  0  0  0  0  0  0  0  0  0  0
  -42.4920  -35.9050    5.1510 C   0  0  0  0  0  0  0  0  0  0  0  0
  -43.5850  -34.4730    5.1410 S   0  0  0  0  0  0  0  0  0  0  0  0
  2  1  1  1
  3  2  1  0
  4  3  2  0
  5  2  1  0
  6  5  1  0
  7  6  1  0
  8  6  1  0
  9  3  1  0
 10  9  1  0
 11 10  1  0
 12 11  2  0
 10 13  1  1
 14 13  1  0
 15 14  2  0
 16 14  1  0
 17 15  1  0
 18 16  2  0
 19 17  2  0
 19 18  1  0
 20 19  1  0
 21 11  1  0
 22 21  1  0
 23 22  1  0
 24 23  2  0
 22 25  1  1
 26 25  1  0
 27 26  2  0
 28 26  1  0
 29 23  1  0
 30 29  1  0
 31 30  1  0
 32 31  2  0
 30 33  1  6
 34 33  1  0
 35 31  1  0
 36 35  1  0
 37 36  1  0
 38 37  2  0
 36 39  1  6
 40 37  1  0
 41 40  1  0
 42 41  1  0
 43 42  2  0
 41 44  1  1
 45 44  1  0
 46 42  1  0
 47 46  1  0
 48 47  1  0
 49 48  2  0
 47 50  1  1
 51 50  1  0
 52 51  2  0
 53 51  1  0
 54 52  1  0
 55 53  2  0
 56 54  2  0
 56 55  1  0
 57 48  1  0
 58 57  1  0
 59 58  1  0
 60 59  2  0
 58 61  1  6
 62 61  1  0
 63 59  1  0
 64 63  1  6
 65 64  1  0
 66 65  2  0
 67 64  1  0
 68 67  1  0
 67 69  1  1
 70 65  1  0
 71 70  1  0
 72 71  1  0
 73 72  2  0
 71 74  1  1
 75 74  1  0
 76 75  2  0
 77 75  1  0
 78 76  1  0
 79 77  2  0
 80 79  1  0
 80 78  2  0
 81 72  1  0
 82 81  1  0
 83 82  1  0
 84 83  2  0
 82 85  1  6
 86 85  1  0
 87 86  1  0
 88 87  1  0
 89 88  1  0
 90 83  1  0
 91 90  1  0
 92 91  1  0
 93 92  2  0
 91 94  1  1
 95 94  1  0
 96 92  1  0
 97 96  1  0
 98 97  1  0
 99 98  2  0
 97100  1  6
101100  1  0
102101  2  0
103101  1  0
104102  1  0
105103  2  0
106105  1  0
106104  2  0
107106  1  0
109108  1  0
109110  1  1
111110  2  0
112109  1  0
113112  1  0
114108  1  0
114113  1  0
115110  1  0
116115  1  6
117116  1  0
118117  2  0
119116  1  0
120119  1  0
119121  1  1
123122  1  1
124123  1  0
125124  2  0
126123  1  0
127 95  1  0
127126  1  0
M  END
$$$$
