
     RDKit          3D

104105  0  0  0  0  0  0  0  0999 V2000
  155.2530  111.2650  149.1590 N   0  0  0  0  0  0  0  0  0  0  0  0
  156.4070  112.1410  149.0290 C   0  0  2  0  0  0  0  0  0  0  0  0
  157.4300  111.8930  150.1250 C   0  0  0  0  0  0  0  0  0  0  0  0
  158.5900  112.2910  149.9830 O   0  0  0  0  0  0  0  0  0  0  0  0
  155.9690  113.6080  149.0300 C   0  0  0  0  0  0  0  0  0  0  0  0
  157.1450  114.5130  148.7740 C   0  0  0  0  0  0  0  0  0  0  0  0
  154.9310  113.8200  147.9950 C   0  0  0  0  0  0  0  0  0  0  0  0
  157.0350  111.2560  151.2210 N   0  0  0  0  0  0  0  0  0  0  0  0
  158.0070  110.8420  152.2200 C   0  0  2  0  0  0  0  0  0  0  0  0
  158.8990  109.7480  151.6640 C   0  0  0  0  0  0  0  0  0  0  0  0
  160.1300  109.8190  151.7640 O   0  0  0  0  0  0  0  0  0  0  0  0
  157.2840  110.3690  153.4770 C   0  0  0  0  0  0  0  0  0  0  0  0
  158.1450  109.6650  154.3440 O   0  0  0  0  0  0  0  0  0  0  0  0
  158.2920  108.7330  151.0530 N   0  0  0  0  0  0  0  0  0  0  0  0
  159.0760  107.6770  150.4290 C   0  0  2  0  0  0  0  0  0  0  0  0
  159.8860  108.2180  149.2610 C   0  0  0  0  0  0  0  0  0  0  0  0
  161.0860  107.9520  149.1460 O   0  0  0  0  0  0  0  0  0  0  0  0
  158.1510  106.5560  149.9760 C   0  0  0  0  0  0  0  0  0  0  0  0
  157.3340  105.9730  151.0830 C   0  0  0  0  0  0  0  0  0  0  0  0
  157.6020  106.2180  152.4120 N   0  0  0  0  0  0  0  0  0  0  0  0
  156.2500  105.1620  151.0610 C   0  0  0  0  0  0  0  0  0  0  0  0
  156.7220  105.5800  153.1610 C   0  0  0  0  0  0  0  0  0  0  0  0
  155.8910  104.9320  152.3660 N   0  0  0  0  0  0  0  0  0  0  0  0
  159.2440  108.9820  148.3890 N   0  0  0  0  0  0  0  0  0  0  0  0
  159.9410  109.6080  147.2780 C   0  0  2  0  0  0  0  0  0  0  0  0
  160.8580  110.7000  147.7970 C   0  0  0  0  0  0  0  0  0  0  0  0
  160.4620  111.5150  148.6310 O   0  0  0  0  0  0  0  0  0  0  0  0
  158.9350  110.1890  146.2890 C   0  0  0  0  0  0  0  0  0  0  0  0
  158.1390  109.1440  145.5430 C   0  0  0  0  0  0  0  0  0  0  0  0
  156.5400  109.6860  144.9250 S   0  0  0  0  0  0  0  0  0  0  0  0
  156.8280  111.4270  144.6970 C   0  0  0  0  0  0  0  0  0  0  0  0
  162.0810  110.7260  147.2980 N   0  0  0  0  0  0  0  0  0  0  0  0
  163.0280  111.7120  147.7580 C   0  0  0  0  0  0  0  0  0  0  0  0
  162.7040  113.0620  147.1810 C   0  0  0  0  0  0  0  0  0  0  0  0
  161.5320  113.4190  147.0530 O   0  0  0  0  0  0  0  0  0  0  0  0
  163.7320  113.8330  146.8510 N   0  0  0  0  0  0  0  0  0  0  0  0
  163.5640  115.0590  146.0970 C   0  0  2  0  0  0  0  0  0  0  0  0
  163.8820  114.8400  144.6270 C   0  0  0  0  0  0  0  0  0  0  0  0
  163.1330  115.2810  143.7570 O   0  0  0  0  0  0  0  0  0  0  0  0
  164.4390  116.1750  146.7000 C   0  0  2  0  0  0  0  0  0  0  0  0
  164.0720  117.5480  146.1600 C   0  0  0  0  0  0  0  0  0  0  0  0
  165.8800  115.9030  146.4750 C   0  0  0  0  0  0  0  0  0  0  0  0
  162.6440  117.9210  146.3130 C   0  0  0  0  0  0  0  0  0  0  0  0
  164.9650  114.1150  144.3440 N   0  0  0  0  0  0  0  0  0  0  0  0
  165.3240  113.8070  142.9680 C   0  0  2  0  0  0  0  0  0  0  0  0
  164.1330  113.2470  142.2200 C   0  0  0  0  0  0  0  0  0  0  0  0
  163.8430  113.6520  141.0920 O   0  0  0  0  0  0  0  0  0  0  0  0
  166.4740  112.8090  142.9470 C   0  0  0  0  0  0  0  0  0  0  0  0
  166.6640  112.1350  141.6300 C   0  0  0  0  0  0  0  0  0  0  0  0
  167.1470  112.8300  140.5530 C   0  0  0  0  0  0  0  0  0  0  0  0
  166.3360  110.8050  141.4660 C   0  0  0  0  0  0  0  0  0  0  0  0
  167.3200  112.2150  139.3460 C   0  0  0  0  0  0  0  0  0  0  0  0
  166.5040  110.1860  140.2560 C   0  0  0  0  0  0  0  0  0  0  0  0
  166.9940  110.8900  139.1960 C   0  0  0  0  0  0  0  0  0  0  0  0
  161.0280  113.6560  143.0270 N   0  0  0  0  0  0  0  0  0  0  0  0
  159.9570  114.6440  142.9780 C   0  0  2  0  0  0  0  0  0  0  0  0
  160.1530  115.5810  141.7960 C   0  0  0  0  0  0  0  0  0  0  0  0
  159.2410  115.7970  140.9900 O   0  0  0  0  0  0  0  0  0  0  0  0
  159.8850  115.4170  144.3020 C   0  0  0  0  0  0  0  0  0  0  0  0
  159.0720  116.6440  144.1420 C   0  0  0  0  0  0  0  0  0  0  0  0
  159.2750  114.5570  145.3510 C   0  0  0  0  0  0  0  0  0  0  0  0
  154.7740  121.3490  152.2990 N   0  0  0  0  0  0  0  0  0  0  0  0
  155.7280  120.2930  152.5950 C   0  0  2  0  0  0  0  0  0  0  0  0
  157.0140  120.8130  153.1910 C   0  0  0  0  0  0  0  0  0  0  0  0
  157.8440  120.0140  153.6270 O   0  0  0  0  0  0  0  0  0  0  0  0
  156.0570  119.5150  151.3320 C   0  0  0  0  0  0  0  0  0  0  0  0
  155.1170  118.4010  151.0410 C   0  0  0  0  0  0  0  0  0  0  0  0
  154.2570  118.4690  149.9770 C   0  0  0  0  0  0  0  0  0  0  0  0
  155.0960  117.2850  151.8300 C   0  0  0  0  0  0  0  0  0  0  0  0
  153.4060  117.4530  149.7060 C   0  0  0  0  0  0  0  0  0  0  0  0
  154.2340  116.2620  151.5620 C   0  0  0  0  0  0  0  0  0  0  0  0
  153.3890  116.3490  150.4970 C   0  0  0  0  0  0  0  0  0  0  0  0
  157.2020  122.1220  153.2170 N   0  0  0  0  0  0  0  0  0  0  0  0
  158.4570  122.7130  153.5940 C   0  0  0  0  0  0  0  0  0  0  0  0
  159.3920  122.9740  152.4440 C   0  0  0  0  0  0  0  0  0  0  0  0
  160.2510  123.8550  152.5480 O   0  0  0  0  0  0  0  0  0  0  0  0
  159.2340  122.2580  151.3390 N   0  0  0  0  0  0  0  0  0  0  0  0
  160.0980  122.4430  150.1910 C   0  0  2  0  0  0  0  0  0  0  0  0
  160.1350  123.9070  149.7900 C   0  0  0  0  0  0  0  0  0  0  0  0
  159.2600  124.7000  150.1430 O   0  0  0  0  0  0  0  0  0  0  0  0
  159.6200  121.5810  149.0260 C   0  0  0  0  0  0  0  0  0  0  0  0
  160.6720  121.3050  147.9920 C   0  0  0  0  0  0  0  0  0  0  0  0
  160.0810  120.4190  146.5410 S   0  0  0  0  0  0  0  0  0  0  0  0
  158.8000  119.4000  147.2550 C   0  0  0  0  0  0  0  0  0  0  0  0
  161.1790  124.2670  149.0680 N   0  0  0  0  0  0  0  0  0  0  0  0
  161.3120  125.6290  148.5910 C   0  0  2  0  0  0  0  0  0  0  0  0
  160.4480  125.8030  147.3520 C   0  0  0  0  0  0  0  0  0  0  0  0
  160.6880  125.1280  146.3470 O   0  0  0  0  0  0  0  0  0  0  0  0
  162.7600  125.9460  148.2700 C   0  0  0  0  0  0  0  0  0  0  0  0
  162.9640  127.3400  148.1580 O   0  0  0  0  0  0  0  0  0  0  0  0
  169.7340  122.9180  144.4670 N   0  0  0  0  0  0  0  0  0  0  0  0
  169.3130  122.5270  145.8030 C   0  0  2  0  0  0  0  0  0  0  0  0
  170.4610  122.7030  146.7870 C   0  0  0  0  0  0  0  0  0  0  0  0
  170.3780  123.5070  147.7220 O   0  0  0  0  0  0  0  0  0  0  0  0
  168.8160  121.0840  145.7810 C   0  0  0  0  0  0  0  0  0  0  0  0
  167.9470  120.7010  146.9050 C   0  0  0  0  0  0  0  0  0  0  0  0
  166.8760  121.3830  147.3860 C   0  0  0  0  0  0  0  0  0  0  0  0
  168.0740  119.5300  147.7070 C   0  0  0  0  0  0  0  0  0  0  0  0
  166.3200  120.7070  148.4440 N   0  0  0  0  0  0  0  0  0  0  0  0
  167.0420  119.5640  148.6600 C   0  0  0  0  0  0  0  0  0  0  0  0
  168.9610  118.4540  147.7130 C   0  0  0  0  0  0  0  0  0  0  0  0
  166.8760  118.5630  149.6060 C   0  0  0  0  0  0  0  0  0  0  0  0
  168.7930  117.4660  148.6510 C   0  0  0  0  0  0  0  0  0  0  0  0
  167.7620  117.5250  149.5820 C   0  0  0  0  0  0  0  0  0  0  0  0
  2  1  1  1
  3  2  1  0
  4  3  2  0
  5  2  1  0
  6  5  1  0
  7  5  1  0
  8  3  1  0
  9  8  1  0
 10  9  1  0
 11 10  2  0
  9 12  1  1
 13 12  1  0
 14 10  1  0
 15 14  1  0
 16 15  1  0
 17 16  2  0
 15 18  1  6
 19 18  1  0
 20 19  1  0
 21 19  2  0
 22 20  2  0
 23 21  1  0
 23 22  1  0
 24 16  1  0
 25 24  1  0
 26 25  1  0
 27 26  2  0
 25 28  1  6
 29 28  1  0
 30 29  1  0
 31 30  1  0
 32 26  1  0
 33 32  1  0
 34 33  1  0
 35 34  2  0
 36 34  1  0
 37 36  1  1
 38 37  1  0
 39 38  2  0
 40 37  1  0
 41 40  1  0
 40 42  1  6
 43 41  1  0
 44 38  1  0
 45 44  1  0
 46 45  1  0
 47 46  2  0
 45 48  1  1
 49 48  1  0
 50 49  2  0
 51 49  1  0
 52 50  1  0
 53 51  2  0
 54 53  1  0
 54 52  2  0
 56 55  1  1
 57 56  1  0
 58 57  2  0
 59 56  1  0
 60 59  1  0
 61 59  1  0
 63 62  1  6
 64 63  1  0
 65 64  2  0
 66 63  1  0
 67 66  1  0
 68 67  2  0
 69 67  1  0
 70 68  1  0
 71 69  2  0
 72 71  1  0
 72 70  2  0
 73 64  1  0
 74 73  1  0
 75 74  1  0
 76 75  2  0
 77 75  1  0
 78 77  1  0
 79 78  1  0
 80 79  2  0
 78 81  1  6
 82 81  1  0
 83 82  1  0
 84 83  1  0
 85 79  1  0
 86 85  1  0
 87 86  1  0
 88 87  2  0
 86 89  1  6
 90 89  1  0
 92 91  1  6
 93 92  1  0
 94 93  2  0
 95 92  1  0
 96 95  1  0
 97 96  2  0
 98 96  1  0
 99 97  1  0
100 98  2  0
100 99  1  0
101 98  1  0
102100  1  0
103101  2  0
104103  1  0
104102  2  0
M  END
$$$$
