
     RDKit          3D

123125  0  0  0  0  0  0  0  0999 V2000
    3.8180   59.7350   53.8130 N   0  0  0  0  0  0  0  0  0  0  0  0
    4.9780   58.9340   53.4590 C   0  0  2  0  0  0  0  0  0  0  0  0
    5.9880   59.8020   52.7170 C   0  0  0  0  0  0  0  0  0  0  0  0
    5.7190   60.9580   52.3830 O   0  0  0  0  0  0  0  0  0  0  0  0
    4.5630   57.7010   52.6440 C   0  0  0  0  0  0  0  0  0  0  0  0
    4.1080   57.9460   51.2220 C   0  0  0  0  0  0  0  0  0  0  0  0
    3.8750   56.6030   50.5320 C   0  0  0  0  0  0  0  0  0  0  0  0
    3.1530   56.7430   49.2730 N   0  0  0  0  0  0  0  0  0  0  0  0
    3.7360   56.9740   48.1020 C   0  0  0  0  0  0  0  0  0  0  0  0
    5.0550   57.0630   48.0220 N   0  0  0  0  0  0  0  0  0  0  0  0
    3.0010   57.1000   47.0070 N   0  0  0  0  0  0  0  0  0  0  0  0
   -5.3410   58.2220   54.8370 N   0  0  0  0  0  0  0  0  0  0  0  0
   -5.2330   59.4280   54.0320 C   0  0  2  0  0  0  0  0  0  0  0  0
   -6.3470   59.4110   52.9970 C   0  0  0  0  0  0  0  0  0  0  0  0
   -6.7510   58.3490   52.5190 O   0  0  0  0  0  0  0  0  0  0  0  0
   -3.8640   59.5500   53.3550 C   0  0  0  0  0  0  0  0  0  0  0  0
   -3.6510   58.6190   52.1860 C   0  0  0  0  0  0  0  0  0  0  0  0
   -3.3940   57.2690   52.3810 C   0  0  0  0  0  0  0  0  0  0  0  0
   -3.7020   59.0940   50.8810 C   0  0  0  0  0  0  0  0  0  0  0  0
   -3.1950   56.4190   51.3100 C   0  0  0  0  0  0  0  0  0  0  0  0
   -3.5040   58.2550   49.8060 C   0  0  0  0  0  0  0  0  0  0  0  0
   -3.2520   56.9180   50.0250 C   0  0  0  0  0  0  0  0  0  0  0  0
   -3.0560   56.0800   48.9530 O   0  0  0  0  0  0  0  0  0  0  0  0
   -8.0390   55.8210   52.9480 N   0  0  0  0  0  0  0  0  0  0  0  0
   -7.3270   54.5690   52.7650 C   0  0  2  0  0  0  0  0  0  0  0  0
   -6.1060   54.5190   53.6630 C   0  0  0  0  0  0  0  0  0  0  0  0
   -5.4400   55.5330   53.8820 O   0  0  0  0  0  0  0  0  0  0  0  0
   -6.9170   54.3720   51.3180 C   0  0  0  0  0  0  0  0  0  0  0  0
   -7.7760   53.3500   50.6400 C   0  0  0  0  0  0  0  0  0  0  0  0
   -7.0480   52.6590   49.5350 C   0  0  0  0  0  0  0  0  0  0  0  0
   -5.8420   52.8440   49.3620 O   0  0  0  0  0  0  0  0  0  0  0  0
   -7.7750   51.8670   48.7590 N   0  0  0  0  0  0  0  0  0  0  0  0
   -5.8170   53.3260   54.1690 N   0  0  0  0  0  0  0  0  0  0  0  0
   -4.7030   53.1420   55.0830 C   0  0  2  0  0  0  0  0  0  0  0  0
   -3.3850   53.1460   54.3250 C   0  0  0  0  0  0  0  0  0  0  0  0
   -3.2400   52.4650   53.3050 O   0  0  0  0  0  0  0  0  0  0  0  0
   -4.8560   51.8350   55.8560 C   0  0  0  0  0  0  0  0  0  0  0  0
   -3.6280   51.4700   56.4600 O   0  0  0  0  0  0  0  0  0  0  0  0
   -2.4280   53.9220   54.8220 N   0  0  0  0  0  0  0  0  0  0  0  0
   -1.0520   53.7650   54.3820 C   0  0  2  0  0  0  0  0  0  0  0  0
   -0.5770   52.3570   54.7110 C   0  0  0  0  0  0  0  0  0  0  0  0
   -0.6790   51.9060   55.8560 O   0  0  0  0  0  0  0  0  0  0  0  0
   -0.1540   54.7910   55.0710 C   0  0  0  0  0  0  0  0  0  0  0  0
   -0.1660   56.1760   54.4680 C   0  0  0  0  0  0  0  0  0  0  0  0
   -0.0180   56.3650   53.1010 C   0  0  0  0  0  0  0  0  0  0  0  0
   -0.3070   57.2980   55.2740 C   0  0  0  0  0  0  0  0  0  0  0  0
   -0.0180   57.6350   52.5540 C   0  0  0  0  0  0  0  0  0  0  0  0
   -0.3090   58.5680   54.7390 C   0  0  0  0  0  0  0  0  0  0  0  0
   -0.1650   58.7320   53.3800 C   0  0  0  0  0  0  0  0  0  0  0  0
   -0.1660   60.0000   52.8490 O   0  0  0  0  0  0  0  0  0  0  0  0
   -0.0630   51.6570   53.7080 N   0  0  0  0  0  0  0  0  0  0  0  0
    0.4780   50.3390   53.9630 C   0  0  0  0  0  0  0  0  0  0  0  0
    1.8650   50.4340   54.5570 C   0  0  0  0  0  0  0  0  0  0  0  0
    2.8380   49.9830   53.9470 O   0  0  0  0  0  0  0  0  0  0  0  0
    1.9700   51.0190   55.7480 N   0  0  0  0  0  0  0  0  0  0  0  0
    3.2670   51.2910   56.3580 C   0  0  2  0  0  0  0  0  0  0  0  0
    3.8590   49.9910   56.8840 C   0  0  0  0  0  0  0  0  0  0  0  0
    3.3740   49.4280   57.8710 O   0  0  0  0  0  0  0  0  0  0  0  0
    3.1340   52.3310   57.4660 C   0  0  0  0  0  0  0  0  0  0  0  0
    3.0380   53.7430   56.9610 C   0  0  0  0  0  0  0  0  0  0  0  0
    3.6770   54.1160   55.7900 C   0  0  0  0  0  0  0  0  0  0  0  0
    2.3160   54.6980   57.6560 C   0  0  0  0  0  0  0  0  0  0  0  0
    3.5950   55.4120   55.3200 C   0  0  0  0  0  0  0  0  0  0  0  0
    2.2330   55.9970   57.1920 C   0  0  0  0  0  0  0  0  0  0  0  0
    2.8730   56.3540   56.0220 C   0  0  0  0  0  0  0  0  0  0  0  0
    4.9120   49.5200   56.2220 N   0  0  0  0  0  0  0  0  0  0  0  0
    5.5890   48.2800   56.5440 C   0  0  2  0  0  0  0  0  0  0  0  0
    7.0880   48.5430   56.5810 C   0  0  0  0  0  0  0  0  0  0  0  0
    7.6140   49.2460   55.7100 O   0  0  0  0  0  0  0  0  0  0  0  0
    5.2450   47.1860   55.5180 C   0  0  0  0  0  0  0  0  0  0  0  0
    6.1880   45.9940   55.5060 C   0  0  0  0  0  0  0  0  0  0  0  0
    6.1700   45.2510   54.1860 C   0  0  0  0  0  0  0  0  0  0  0  0
    7.1660   44.6560   53.7770 O   0  0  0  0  0  0  0  0  0  0  0  0
    5.0230   45.2570   53.5270 N   0  0  0  0  0  0  0  0  0  0  0  0
    7.7940   48.0190   57.5910 N   0  0  0  0  0  0  0  0  0  0  0  0
    9.1980   48.4230   57.8100 C   0  0  2  0  0  0  0  0  0  0  0  0
   10.0930   48.3480   56.5800 C   0  0  0  0  0  0  0  0  0  0  0  0
   10.9350   49.2330   56.3850 O   0  0  0  0  0  0  0  0  0  0  0  0
    9.6670   47.4530   58.9090 C   0  0  0  0  0  0  0  0  0  0  0  0
    8.5990   46.3900   59.0010 C   0  0  0  0  0  0  0  0  0  0  0  0
    7.3340   47.0680   58.6140 C   0  0  0  0  0  0  0  0  0  0  0  0
    9.9470   47.3130   55.7510 N   0  0  0  0  0  0  0  0  0  0  0  0
   10.8330   47.1050   54.6090 C   0  0  2  0  0  0  0  0  0  0  0  0
   10.6380   48.1230   53.4870 C   0  0  0  0  0  0  0  0  0  0  0  0
   11.3480   48.0320   52.4790 O   0  0  0  0  0  0  0  0  0  0  0  0
   10.6500   45.6920   54.0530 C   0  0  2  0  0  0  0  0  0  0  0  0
    9.2560   45.4310   53.8580 O   0  0  0  0  0  0  0  0  0  0  0  0
   11.2210   44.6660   55.0160 C   0  0  0  0  0  0  0  0  0  0  0  0
    9.6950   49.0570   53.6150 N   0  0  0  0  0  0  0  0  0  0  0  0
    9.3600   49.9590   52.5190 C   0  0  2  0  0  0  0  0  0  0  0  0
   10.5710   50.7550   52.0520 C   0  0  0  0  0  0  0  0  0  0  0  0
   11.5230   50.9840   52.8030 O   0  0  0  0  0  0  0  0  0  0  0  0
    8.2640   50.9330   52.9450 C   0  0  0  0  0  0  0  0  0  0  0  0
    6.9080   50.2990   52.9570 C   0  0  0  0  0  0  0  0  0  0  0  0
    6.0290   50.6890   53.7240 O   0  0  0  0  0  0  0  0  0  0  0  0
    6.7220   49.2980   52.1070 N   0  0  0  0  0  0  0  0  0  0  0  0
   10.5260   51.1770   50.7900 N   0  0  0  0  0  0  0  0  0  0  0  0
   11.4630   52.1750   50.3150 C   0  0  0  0  0  0  0  0  0  0  0  0
   11.2670   53.5060   51.0130 C   0  0  0  0  0  0  0  0  0  0  0  0
   10.2030   53.8000   51.5600 O   0  0  0  0  0  0  0  0  0  0  0  0
   12.3210   54.3260   50.9860 N   0  0  0  0  0  0  0  0  0  0  0  0
   12.2970   55.5960   51.7120 C   0  0  2  0  0  0  0  0  0  0  0  0
   11.0950   56.4380   51.2930 C   0  0  0  0  0  0  0  0  0  0  0  0
   10.4670   57.1050   52.1250 O   0  0  0  0  0  0  0  0  0  0  0  0
   13.6260   56.3540   51.5160 C   0  0  0  0  0  0  0  0  0  0  0  0
   13.9010   56.6110   50.0370 C   0  0  0  0  0  0  0  0  0  0  0  0
   13.6190   57.6600   52.3000 C   0  0  0  0  0  0  0  0  0  0  0  0
   10.7300   56.3890   50.0100 N   0  0  0  0  0  0  0  0  0  0  0  0
    9.5710   57.1360   49.5540 C   0  0  0  0  0  0  0  0  0  0  0  0
    8.2620   56.5980   50.0940 C   0  0  0  0  0  0  0  0  0  0  0  0
    7.2830   57.3400   50.2120 O   0  0  0  0  0  0  0  0  0  0  0  0
    8.2240   55.3120   50.4360 N   0  0  0  0  0  0  0  0  0  0  0  0
    7.0230   54.6970   50.9770 C   0  0  2  0  0  0  0  0  0  0  0  0
    7.0180   54.6390   52.4960 C   0  0  0  0  0  0  0  0  0  0  0  0
    5.9520   54.4390   53.0890 O   0  0  0  0  0  0  0  0  0  0  0  0
    6.8680   53.2760   50.4270 C   0  0  0  0  0  0  0  0  0  0  0  0
    6.2230   53.2080   49.0660 C   0  0  0  0  0  0  0  0  0  0  0  0
    4.8410   53.2360   48.9250 C   0  0  0  0  0  0  0  0  0  0  0  0
    6.9970   53.1250   47.9190 C   0  0  0  0  0  0  0  0  0  0  0  0
    4.2530   53.1710   47.6780 C   0  0  0  0  0  0  0  0  0  0  0  0
    6.4190   53.0630   46.6720 C   0  0  0  0  0  0  0  0  0  0  0  0
    5.0490   53.0860   46.5550 C   0  0  0  0  0  0  0  0  0  0  0  0
    4.4810   53.0240   45.3050 O   0  0  0  0  0  0  0  0  0  0  0  0
  2  1  1  6
  3  2  1  0
  4  3  2  0
  5  2  1  0
  6  5  1  0
  7  6  1  0
  8  7  1  0
  9  8  1  0
 10  9  1  0
 11  9  2  0
 13 12  1  6
 14 13  1  0
 15 14  2  0
 16 13  1  0
 17 16  1  0
 18 17  2  0
 19 17  1  0
 20 18  1  0
 21 19  2  0
 22 21  1  0
 22 20  2  0
 23 22  1  0
 25 24  1  6
 26 25  1  0
 27 26  2  0
 28 25  1  0
 29 28  1  0
 30 29  1  0
 31 30  2  0
 32 30  1  0
 33 26  1  0
 34 33  1  0
 35 34  1  0
 36 35  2  0
 34 37  1  6
 38 37  1  0
 39 35  1  0
 40 39  1  0
 41 40  1  0
 42 41  2  0
 40 43  1  1
 44 43  1  0
 45 44  2  0
 46 44  1  0
 47 45  1  0
 48 46  2  0
 49 47  2  0
 49 48  1  0
 50 49  1  0
 51 41  1  0
 52 51  1  0
 53 52  1  0
 54 53  2  0
 55 53  1  0
 56 55  1  0
 57 56  1  0
 58 57  2  0
 56 59  1  1
 60 59  1  0
 61 60  2  0
 62 60  1  0
 63 61  1  0
 64 62  2  0
 65 64  1  0
 65 63  2  0
 66 57  1  0
 67 66  1  0
 68 67  1  0
 69 68  2  0
 67 70  1  6
 71 70  1  0
 72 71  1  0
 73 72  2  0
 74 72  1  0
 75 68  1  0
 76 75  1  0
 76 77  1  6
 78 77  2  0
 79 76  1  0
 80 79  1  0
 81 80  1  0
 81 75  1  0
 82 77  1  0
 83 82  1  1
 84 83  1  0
 85 84  2  0
 86 83  1  0
 87 86  1  0
 86 88  1  1
 89 84  1  0
 90 89  1  0
 91 90  1  0
 92 91  2  0
 90 93  1  1
 94 93  1  0
 95 94  2  0
 96 94  1  0
 97 91  1  0
 98 97  1  0
 99 98  1  0
100 99  2  0
101 99  1  0
102101  1  6
103102  1  0
104103  2  0
105102  1  0
106105  1  0
107105  1  0
108103  1  0
109108  1  0
110109  1  0
111110  2  0
112110  1  0
113112  1  0
114113  1  0
115114  2  0
113116  1  6
117116  1  0
118117  2  0
119117  1  0
120118  1  0
121119  2  0
122120  2  0
122121  1  0
123122  1  0
M  END
$$$$
