
     RDKit          3D

111106  0  0  0  0  0  0  0  0999 V2000
   21.3100    3.7200   79.7750 N   0  0  0  0  0  0  0  0  0  0  0  0
   21.4690    2.7680   78.6640 C   0  0  2  0  0  0  0  0  0  0  0  0
   22.6720    3.0610   77.7900 C   0  0  0  0  0  0  0  0  0  0  0  0
   23.2280    2.1400   77.1970 O   0  0  0  0  0  0  0  0  0  0  0  0
   20.2180    2.7590   77.7790 C   0  0  0  0  0  0  0  0  0  0  0  0
   18.9360    2.3540   78.5000 C   0  0  0  0  0  0  0  0  0  0  0  0
   18.2390    3.1980   79.0880 O   0  0  0  0  0  0  0  0  0  0  0  0
   18.5830    1.0590   78.4750 N   0  0  0  0  0  0  0  0  0  0  0  0
   23.0740    4.3270   77.6900 N   0  0  0  0  0  0  0  0  0  0  0  0
   24.2140    4.7100   76.8700 C   0  0  2  0  0  0  0  0  0  0  0  0
   25.5040    4.2040   77.5060 C   0  0  0  0  0  0  0  0  0  0  0  0
   26.3620    3.6640   76.8000 O   0  0  0  0  0  0  0  0  0  0  0  0
   24.2230    6.2370   76.6130 C   0  0  0  0  0  0  0  0  0  0  0  0
   25.5480    6.6960   76.0150 C   0  0  0  0  0  0  0  0  0  0  0  0
   23.0610    6.6270   75.7040 C   0  0  0  0  0  0  0  0  0  0  0  0
   25.6390    4.3440   78.8250 N   0  0  0  0  0  0  0  0  0  0  0  0
   26.8300    3.8630   79.5130 C   0  0  2  0  0  0  0  0  0  0  0  0
   26.9520    2.3370   79.4030 C   0  0  0  0  0  0  0  0  0  0  0  0
   25.9540    1.6340   79.5680 O   0  0  0  0  0  0  0  0  0  0  0  0
   26.7870    4.2700   80.9830 C   0  0  0  0  0  0  0  0  0  0  0  0
   27.0650    5.7300   81.2200 C   0  0  0  0  0  0  0  0  0  0  0  0
   26.9870    6.0460   82.6810 C   0  0  0  0  0  0  0  0  0  0  0  0
   27.6450    7.3450   83.0140 C   0  0  0  0  0  0  0  0  0  0  0  0
   26.9040    8.5190   82.4850 N   0  0  0  0  0  0  0  0  0  0  0  0
   28.1610    1.8300   79.0820 N   0  0  0  0  0  0  0  0  0  0  0  0
   28.4220    0.3930   78.9910 C   0  0  2  0  0  0  0  0  0  0  0  0
   28.4320   -0.1820   80.4020 C   0  0  0  0  0  0  0  0  0  0  0  0
   28.9110    0.4860   81.3270 O   0  0  0  0  0  0  0  0  0  0  0  0
   29.8030    0.1270   78.3140 C   0  0  2  0  0  0  0  0  0  0  0  0
   29.7500    0.5050   76.9340 O   0  0  0  0  0  0  0  0  0  0  0  0
   30.2510   -1.3350   78.4240 C   0  0  0  0  0  0  0  0  0  0  0  0
   23.1820   -5.6990   68.1990 N   0  0  0  0  0  0  0  0  0  0  0  0
   22.1190   -5.2320   67.2960 C   0  0  2  0  0  0  0  0  0  0  0  0
   22.6020   -4.5830   65.9720 C   0  0  0  0  0  0  0  0  0  0  0  0
   21.8020   -4.4810   65.0420 O   0  0  0  0  0  0  0  0  0  0  0  0
   21.1530   -4.2950   68.0260 C   0  0  0  0  0  0  0  0  0  0  0  0
   21.7740   -3.4930   69.0180 O   0  0  0  0  0  0  0  0  0  0  0  0
   23.8700   -4.1830   65.8770 N   0  0  0  0  0  0  0  0  0  0  0  0
   24.3880   -3.6020   64.6440 C   0  0  0  0  0  0  0  0  0  0  0  0
   25.5540   -2.6630   64.8270 C   0  0  0  0  0  0  0  0  0  0  0  0
   25.9250   -2.3260   65.9510 O   0  0  0  0  0  0  0  0  0  0  0  0
   26.1130   -2.2430   63.7030 N   0  0  0  0  0  0  0  0  0  0  0  0
   27.2520   -1.3410   63.6450 C   0  0  0  0  0  0  0  0  0  0  0  0
   28.3990   -1.9430   62.8660 C   0  0  0  0  0  0  0  0  0  0  0  0
   28.1900   -2.8330   62.0370 O   0  0  0  0  0  0  0  0  0  0  0  0
   29.6200   -1.4610   63.1240 N   0  0  0  0  0  0  0  0  0  0  0  0
   30.8010   -1.9960   62.4570 C   0  0  2  0  0  0  0  0  0  0  0  0
   31.1690   -3.3750   63.0010 C   0  0  0  0  0  0  0  0  0  0  0  0
   30.7910   -3.7410   64.1180 O   0  0  0  0  0  0  0  0  0  0  0  0
   31.9940   -1.0420   62.5880 C   0  0  0  0  0  0  0  0  0  0  0  0
   31.8910    0.2200   61.7510 C   0  0  0  0  0  0  0  0  0  0  0  0
   30.9310    0.3330   60.9480 O   0  0  0  0  0  0  0  0  0  0  0  0
   32.7600    1.1050   61.9060 O   0  0  0  0  0  0  0  0  0  0  0  0
   31.9090   -4.1480   62.1810 N   0  0  0  0  0  0  0  0  0  0  0  0
   32.3400   -5.5030   62.5120 C   0  0  2  0  0  0  0  0  0  0  0  0
   33.1400   -5.5080   63.8080 C   0  0  0  0  0  0  0  0  0  0  0  0
   32.9400   -6.3840   64.6310 O   0  0  0  0  0  0  0  0  0  0  0  0
   33.1570   -6.0950   61.3420 C   0  0  0  0  0  0  0  0  0  0  0  0
   33.4750   -7.5930   61.3790 C   0  0  0  0  0  0  0  0  0  0  0  0
   32.2080   -8.4360   61.3080 C   0  0  0  0  0  0  0  0  0  0  0  0
   34.3890   -7.9650   60.2390 C   0  0  0  0  0  0  0  0  0  0  0  0
   32.6070   -4.0220   66.5640 N   0  0  0  0  0  0  0  0  0  0  0  0
   31.6970   -4.1290   67.7100 C   0  0  2  0  0  0  0  0  0  0  0  0
   30.6790   -5.2640   67.5930 C   0  0  0  0  0  0  0  0  0  0  0  0
   30.2910   -5.8130   68.6260 O   0  0  0  0  0  0  0  0  0  0  0  0
   30.9830   -2.7830   67.9950 C   0  0  2  0  0  0  0  0  0  0  0  0
   29.8480   -2.4770   66.9680 C   0  0  0  0  0  0  0  0  0  0  0  0
   31.9990   -1.6400   68.0710 C   0  0  0  0  0  0  0  0  0  0  0  0
   29.0130   -1.2910   67.3200 C   0  0  0  0  0  0  0  0  0  0  0  0
   25.6020   -3.8120   76.9410 N   0  0  0  0  0  0  0  0  0  0  0  0
   24.8370   -2.5970   76.6870 C   0  0  2  0  0  0  0  0  0  0  0  0
   23.3680   -3.0100   76.7390 C   0  0  0  0  0  0  0  0  0  0  0  0
   22.9930   -3.9450   76.0580 O   0  0  0  0  0  0  0  0  0  0  0  0
   25.2170   -1.9530   75.3320 C   0  0  2  0  0  0  0  0  0  0  0  0
   24.8520   -2.8170   74.2560 O   0  0  0  0  0  0  0  0  0  0  0  0
   26.6970   -1.5800   75.2480 C   0  0  0  0  0  0  0  0  0  0  0  0
   22.5500   -2.3310   77.5530 N   0  0  0  0  0  0  0  0  0  0  0  0
   21.1320   -2.6430   77.7420 C   0  0  2  0  0  0  0  0  0  0  0  0
   20.1880   -1.9240   76.7480 C   0  0  0  0  0  0  0  0  0  0  0  0
   20.2460   -0.6910   76.5860 O   0  0  0  0  0  0  0  0  0  0  0  0
   20.7430   -2.2540   79.1770 C   0  0  0  0  0  0  0  0  0  0  0  0
   19.3920   -2.7670   79.6220 C   0  0  0  0  0  0  0  0  0  0  0  0
   19.2130   -2.6180   81.1120 C   0  0  0  0  0  0  0  0  0  0  0  0
   19.2330   -1.2270   81.5830 N   0  0  0  0  0  0  0  0  0  0  0  0
   18.2010   -0.3800   81.5380 C   0  0  0  0  0  0  0  0  0  0  0  0
   17.0460   -0.7520   80.9950 N   0  0  0  0  0  0  0  0  0  0  0  0
   18.3240    0.8510   82.0170 N   0  0  0  0  0  0  0  0  0  0  0  0
   31.1090   -2.7350   73.1140 N   0  0  0  0  0  0  0  0  0  0  0  0
   32.5290   -2.4460   72.9780 C   0  0  0  0  0  0  0  0  0  0  0  0
   32.7490   -1.2380   72.0880 C   0  0  0  0  0  0  0  0  0  0  0  0
   31.8780   -0.3600   71.9880 O   0  0  0  0  0  0  0  0  0  0  0  0
   33.9160   -1.1850   71.4510 N   0  0  0  0  0  0  0  0  0  0  0  0
   34.2580   -0.0990   70.5380 C   0  0  0  0  0  0  0  0  0  0  0  0
   34.8940    1.0900   71.2260 C   0  0  0  0  0  0  0  0  0  0  0  0
   35.9000    1.6120   70.7390 O   0  0  0  0  0  0  0  0  0  0  0  0
   34.3150    1.5400   72.3550 N   0  0  0  0  0  0  0  0  0  0  0  0
   34.9170    2.6190   73.1230 C   0  0  2  0  0  0  0  0  0  0  0  0
   36.0710    1.9720   73.8960 C   0  0  0  0  0  0  0  0  0  0  0  0
   35.8650    1.1580   74.7980 O   0  0  0  0  0  0  0  0  0  0  0  0
   33.9230    3.2910   74.0630 C   0  0  0  0  0  0  0  0  0  0  0  0
   34.5040    4.4830   74.7920 C   0  0  0  0  0  0  0  0  0  0  0  0
   35.6910    4.8140   74.6820 O   0  0  0  0  0  0  0  0  0  0  0  0
   33.6780    5.1700   75.5590 N   0  0  0  0  0  0  0  0  0  0  0  0
   37.2820    2.3160   73.5120 N   0  0  0  0  0  0  0  0  0  0  0  0
   38.4840    1.7660   74.1300 C   0  0  2  0  0  0  0  0  0  0  0  0
   38.6210    2.1900   75.6130 C   0  0  0  0  0  0  0  0  0  0  0  0
   39.3060    1.4930   76.3660 O   0  0  0  0  0  0  0  0  0  0  0  0
   39.7040    2.2290   73.3250 C   0  0  0  0  0  0  0  0  0  0  0  0
   40.8910    1.3400   73.4150 C   0  0  0  0  0  0  0  0  0  0  0  0
   42.1730    1.9620   72.3050 S   0  0  0  0  0  0  0  0  0  0  0  0
   42.9580    3.1260   73.3580 C   0  0  0  0  0  0  0  0  0  0  0  0
  2  1  1  1
  3  2  1  0
  4  3  2  0
  5  2  1  0
  6  5  1  0
  7  6  2  0
  8  6  1  0
  9  3  1  0
 10  9  1  1
 11 10  1  0
 12 11  2  0
 13 10  1  0
 14 13  1  0
 15 13  1  0
 16 11  1  0
 17 16  1  0
 18 17  1  0
 19 18  2  0
 17 20  1  1
 21 20  1  0
 22 21  1  0
 23 22  1  0
 24 23  1  0
 25 18  1  0
 26 25  1  1
 27 26  1  0
 28 27  2  0
 29 26  1  0
 30 29  1  0
 29 31  1  6
 33 32  1  1
 34 33  1  0
 35 34  2  0
 36 33  1  0
 37 36  1  0
 38 34  1  0
 39 38  1  0
 40 39  1  0
 41 40  2  0
 42 40  1  0
 43 42  1  0
 44 43  1  0
 45 44  2  0
 46 44  1  0
 47 46  1  0
 48 47  1  0
 49 48  2  0
 47 50  1  1
 51 50  1  0
 52 51  2  0
 53 51  1  0
 54 48  1  0
 55 54  1  0
 56 55  1  0
 57 56  2  0
 55 58  1  6
 59 58  1  0
 60 59  1  0
 61 59  1  0
 63 62  1  6
 64 63  1  0
 65 64  2  0
 66 63  1  0
 67 66  1  0
 66 68  1  6
 69 67  1  0
 71 70  1  6
 72 71  1  0
 73 72  2  0
 74 71  1  0
 75 74  1  0
 74 76  1  1
 77 72  1  0
 78 77  1  0
 79 78  1  0
 80 79  2  0
 78 81  1  1
 82 81  1  0
 83 82  1  0
 84 83  1  0
 85 84  1  0
 86 85  1  0
 87 85  2  0
 89 88  1  0
 90 89  1  0
 91 90  2  0
 92 90  1  0
 93 92  1  0
 94 93  1  0
 95 94  2  0
 96 94  1  0
 97 96  1  0
 98 97  1  0
 99 98  2  0
 97100  1  1
101100  1  0
102101  2  0
103101  1  0
104 98  1  0
105104  1  0
106105  1  0
107106  2  0
105108  1  6
109108  1  0
110109  1  0
111110  1  0
M  END
$$$$
