
     RDKit          3D

145144  0  0  0  0  0  0  0  0999 V2000
   87.0560   -5.8000  -15.1760 N   0  0  0  0  0  0  0  0  0  0  0  0
   86.9360   -6.7080  -14.0360 C   0  0  2  0  0  0  0  0  0  0  0  0
   88.1900   -7.5560  -13.8640 C   0  0  0  0  0  0  0  0  0  0  0  0
   88.5760   -7.8880  -12.7370 O   0  0  0  0  0  0  0  0  0  0  0  0
   85.7100   -7.6080  -14.1960 C   0  0  0  0  0  0  0  0  0  0  0  0
   84.3860   -6.8720  -14.2000 C   0  0  0  0  0  0  0  0  0  0  0  0
   83.2300   -7.8360  -14.4040 C   0  0  0  0  0  0  0  0  0  0  0  0
   81.8930   -7.1200  -14.3150 C   0  0  0  0  0  0  0  0  0  0  0  0
   81.7580   -6.0510  -15.3440 N   0  0  0  0  0  0  0  0  0  0  0  0
   90.6590   -6.3280  -10.7770 N   0  0  0  0  0  0  0  0  0  0  0  0
   90.4550   -7.1840   -9.6210 C   0  0  2  0  0  0  0  0  0  0  0  0
   91.1090   -8.5540   -9.7350 C   0  0  0  0  0  0  0  0  0  0  0  0
   91.0390   -9.3270   -8.7750 O   0  0  0  0  0  0  0  0  0  0  0  0
   88.9530   -7.3640   -9.3590 C   0  0  0  0  0  0  0  0  0  0  0  0
   88.1750   -6.0670   -9.2740 C   0  0  0  0  0  0  0  0  0  0  0  0
   88.7360   -4.9270   -8.7090 C   0  0  0  0  0  0  0  0  0  0  0  0
   86.8810   -5.9840   -9.7650 C   0  0  0  0  0  0  0  0  0  0  0  0
   88.0240   -3.7420   -8.6360 C   0  0  0  0  0  0  0  0  0  0  0  0
   86.1620   -4.8050   -9.6940 C   0  0  0  0  0  0  0  0  0  0  0  0
   86.7370   -3.6880   -9.1300 C   0  0  0  0  0  0  0  0  0  0  0  0
   86.0170   -2.5150   -9.0630 O   0  0  0  0  0  0  0  0  0  0  0  0
   87.5590  -13.1900   -9.6930 N   0  0  0  0  0  0  0  0  0  0  0  0
   87.0650  -12.2810   -8.6700 C   0  0  2  0  0  0  0  0  0  0  0  0
   86.1580  -11.2320   -9.2980 C   0  0  0  0  0  0  0  0  0  0  0  0
   86.5510  -10.5450  -10.2460 O   0  0  0  0  0  0  0  0  0  0  0  0
   88.2280  -11.6100   -7.9430 C   0  0  0  0  0  0  0  0  0  0  0  0
   87.7880  -10.6450   -6.8610 C   0  0  0  0  0  0  0  0  0  0  0  0
   88.9590  -10.1940   -6.0130 C   0  0  0  0  0  0  0  0  0  0  0  0
   89.7130  -11.3280   -5.4860 N   0  0  0  0  0  0  0  0  0  0  0  0
   89.3500  -12.0400   -4.4240 C   0  0  0  0  0  0  0  0  0  0  0  0
   88.2360  -11.7440   -3.7680 N   0  0  0  0  0  0  0  0  0  0  0  0
   90.1020  -13.0530   -4.0170 N   0  0  0  0  0  0  0  0  0  0  0  0
   84.9420  -11.1130   -8.7690 N   0  0  0  0  0  0  0  0  0  0  0  0
   83.9620  -10.1490   -9.2560 C   0  0  2  0  0  0  0  0  0  0  0  0
   83.8870   -8.8950   -8.3980 C   0  0  0  0  0  0  0  0  0  0  0  0
   83.7210   -7.7950   -8.9320 O   0  0  0  0  0  0  0  0  0  0  0  0
   82.5750  -10.7950   -9.3290 C   0  0  0  0  0  0  0  0  0  0  0  0
   81.3810   -9.8970   -9.6670 C   0  0  0  0  0  0  0  0  0  0  0  0
   81.5800   -9.1900  -11.0000 C   0  0  0  0  0  0  0  0  0  0  0  0
   80.0980  -10.7160   -9.6770 C   0  0  0  0  0  0  0  0  0  0  0  0
   84.0110   -9.0350   -7.0810 N   0  0  0  0  0  0  0  0  0  0  0  0
   83.9060   -7.9200   -6.1520 C   0  0  2  0  0  0  0  0  0  0  0  0
   85.2480   -7.6800   -5.4750 C   0  0  0  0  0  0  0  0  0  0  0  0
   85.8500   -8.6120   -4.9300 O   0  0  0  0  0  0  0  0  0  0  0  0
   82.8300   -8.1860   -5.0960 C   0  0  0  0  0  0  0  0  0  0  0  0
   81.4570   -8.3870   -5.6650 C   0  0  0  0  0  0  0  0  0  0  0  0
   80.7450   -7.3170   -6.1800 C   0  0  0  0  0  0  0  0  0  0  0  0
   80.8720   -9.6430   -5.6780 C   0  0  0  0  0  0  0  0  0  0  0  0
   79.4770   -7.4960   -6.7060 C   0  0  0  0  0  0  0  0  0  0  0  0
   79.6030   -9.8280   -6.2010 C   0  0  0  0  0  0  0  0  0  0  0  0
   78.9050   -8.7520   -6.7160 C   0  0  0  0  0  0  0  0  0  0  0  0
   85.7100   -6.4320   -5.5090 N   0  0  0  0  0  0  0  0  0  0  0  0
   86.8920   -6.0380   -4.7580 C   0  0  2  0  0  0  0  0  0  0  0  0
   86.8020   -4.5490   -4.4550 C   0  0  0  0  0  0  0  0  0  0  0  0
   86.3280   -3.7690   -5.2870 O   0  0  0  0  0  0  0  0  0  0  0  0
   88.1810   -6.3640   -5.5170 C   0  0  0  0  0  0  0  0  0  0  0  0
   89.4100   -6.3630   -4.6330 C   0  0  0  0  0  0  0  0  0  0  0  0
   90.6180   -6.9220   -5.3550 C   0  0  0  0  0  0  0  0  0  0  0  0
   91.6990   -7.2300   -4.4240 N   0  0  0  0  0  0  0  0  0  0  0  0
   92.6040   -6.3480   -4.0130 C   0  0  0  0  0  0  0  0  0  0  0  0
   92.5650   -5.0980   -4.4560 N   0  0  0  0  0  0  0  0  0  0  0  0
   93.5520   -6.7190   -3.1640 N   0  0  0  0  0  0  0  0  0  0  0  0
   87.2520   -4.1640   -3.2560 N   0  0  0  0  0  0  0  0  0  0  0  0
   87.0670   -2.7880   -2.8020 C   0  0  2  0  0  0  0  0  0  0  0  0
   87.8660   -1.8070   -3.6490 C   0  0  0  0  0  0  0  0  0  0  0  0
   87.4170   -0.6810   -3.8980 O   0  0  0  0  0  0  0  0  0  0  0  0
   87.4630   -2.6570   -1.3300 C   0  0  0  0  0  0  0  0  0  0  0  0
   86.4810   -3.2800   -0.3420 C   0  0  0  0  0  0  0  0  0  0  0  0
   85.1000   -2.6390   -0.4290 C   0  0  0  0  0  0  0  0  0  0  0  0
   84.1310   -3.2520    0.5800 C   0  0  0  0  0  0  0  0  0  0  0  0
   84.5320   -2.9910    1.9920 N   0  0  0  0  0  0  0  0  0  0  0  0
   82.3460  -10.4380    0.6960 N   0  0  0  0  0  0  0  0  0  0  0  0
   82.4190   -9.0360    0.3040 C   0  0  2  0  0  0  0  0  0  0  0  0
   81.2690   -8.2470    0.9150 C   0  0  0  0  0  0  0  0  0  0  0  0
   80.0990   -8.6200    0.7720 O   0  0  0  0  0  0  0  0  0  0  0  0
   82.3970   -8.9090   -1.2180 C   0  0  0  0  0  0  0  0  0  0  0  0
   82.5970   -7.4980   -1.7200 C   0  0  0  0  0  0  0  0  0  0  0  0
   83.8580   -6.9240   -1.7430 C   0  0  0  0  0  0  0  0  0  0  0  0
   81.5260   -6.7440   -2.1830 C   0  0  0  0  0  0  0  0  0  0  0  0
   84.0490   -5.6360   -2.2050 C   0  0  0  0  0  0  0  0  0  0  0  0
   81.7080   -5.4560   -2.6490 C   0  0  0  0  0  0  0  0  0  0  0  0
   82.9720   -4.9070   -2.6580 C   0  0  0  0  0  0  0  0  0  0  0  0
   83.1670   -3.6250   -3.1180 O   0  0  0  0  0  0  0  0  0  0  0  0
   81.6060   -7.1450    1.5840 N   0  0  0  0  0  0  0  0  0  0  0  0
   80.6270   -6.3120    2.2780 C   0  0  2  0  0  0  0  0  0  0  0  0
   80.1930   -5.1910    1.3420 C   0  0  0  0  0  0  0  0  0  0  0  0
   80.9310   -4.2280    1.1200 O   0  0  0  0  0  0  0  0  0  0  0  0
   81.2150   -5.7680    3.5740 C   0  0  0  0  0  0  0  0  0  0  0  0
   80.2590   -4.9090    4.3840 C   0  0  0  0  0  0  0  0  0  0  0  0
   80.8120   -4.5540    5.7510 C   0  0  0  0  0  0  0  0  0  0  0  0
   81.7890   -5.1460    6.2100 O   0  0  0  0  0  0  0  0  0  0  0  0
   80.1890   -3.5830    6.4090 N   0  0  0  0  0  0  0  0  0  0  0  0
   78.9860   -5.3190    0.7880 N   0  0  0  0  0  0  0  0  0  0  0  0
   78.4200   -4.2990   -0.0850 C   0  0  2  0  0  0  0  0  0  0  0  0
   77.5560   -3.2930    0.6600 C   0  0  0  0  0  0  0  0  0  0  0  0
   77.3780   -2.1700    0.1740 O   0  0  0  0  0  0  0  0  0  0  0  0
   77.5870   -4.9490   -1.1950 C   0  0  0  0  0  0  0  0  0  0  0  0
   77.0100   -3.6690    1.8150 N   0  0  0  0  0  0  0  0  0  0  0  0
   76.2340   -2.7680    2.6360 C   0  0  0  0  0  0  0  0  0  0  0  0
   77.0230   -2.2580    3.8280 C   0  0  0  0  0  0  0  0  0  0  0  0
   78.2320   -2.4650    3.9540 O   0  0  0  0  0  0  0  0  0  0  0  0
   76.3140   -1.5650    4.7150 N   0  0  0  0  0  0  0  0  0  0  0  0
   76.9210   -1.0670    5.9400 C   0  0  2  0  0  0  0  0  0  0  0  0
   76.8990   -2.0910    7.0660 C   0  0  0  0  0  0  0  0  0  0  0  0
   77.6160   -1.9150    8.0570 O   0  0  0  0  0  0  0  0  0  0  0  0
   76.2130    0.2130    6.3960 C   0  0  0  0  0  0  0  0  0  0  0  0
   74.8330   -0.0230    6.6140 O   0  0  0  0  0  0  0  0  0  0  0  0
   76.1050   -3.1480    6.9370 N   0  0  0  0  0  0  0  0  0  0  0  0
   76.0470   -4.1800    7.9670 C   0  0  2  0  0  0  0  0  0  0  0  0
   77.1740   -5.1870    7.7600 C   0  0  0  0  0  0  0  0  0  0  0  0
   77.3140   -5.7300    6.6590 O   0  0  0  0  0  0  0  0  0  0  0  0
   74.7020   -4.9010    7.9360 C   0  0  2  0  0  0  0  0  0  0  0  0
   73.6500   -3.9690    8.2130 O   0  0  0  0  0  0  0  0  0  0  0  0
   74.6710   -6.0200    8.9710 C   0  0  0  0  0  0  0  0  0  0  0  0
   72.0090  -10.7860    1.7270 N   0  0  0  0  0  0  0  0  0  0  0  0
   71.8660   -9.4950    1.0710 C   0  0  2  0  0  0  0  0  0  0  0  0
   73.0160   -8.5800    1.4800 C   0  0  0  0  0  0  0  0  0  0  0  0
   73.3540   -8.4850    2.6640 O   0  0  0  0  0  0  0  0  0  0  0  0
   70.5200   -8.8600    1.4200 C   0  0  0  0  0  0  0  0  0  0  0  0
   70.2650   -7.5620    0.7120 C   0  0  0  0  0  0  0  0  0  0  0  0
   69.8390   -7.5500   -0.6060 C   0  0  0  0  0  0  0  0  0  0  0  0
   70.4580   -6.3540    1.3600 C   0  0  0  0  0  0  0  0  0  0  0  0
   69.6080   -6.3560   -1.2640 C   0  0  0  0  0  0  0  0  0  0  0  0
   70.2300   -5.1590    0.7100 C   0  0  0  0  0  0  0  0  0  0  0  0
   69.8040   -5.1590   -0.6040 C   0  0  0  0  0  0  0  0  0  0  0  0
   73.6260   -7.9220    0.4930 N   0  0  0  0  0  0  0  0  0  0  0  0
   74.8000   -7.0650    0.6490 C   0  0  2  0  0  0  0  0  0  0  0  0
   76.0280   -7.8210    1.1490 C   0  0  0  0  0  0  0  0  0  0  0  0
   77.0360   -7.1930    1.5010 O   0  0  0  0  0  0  0  0  0  0  0  0
   74.5170   -5.8700    1.5700 C   0  0  0  0  0  0  0  0  0  0  0  0
   73.6680   -4.8060    0.9020 C   0  0  0  0  0  0  0  0  0  0  0  0
   73.5620   -4.7580   -0.3230 O   0  0  0  0  0  0  0  0  0  0  0  0
   73.0670   -3.9370    1.7070 N   0  0  0  0  0  0  0  0  0  0  0  0
   78.1560  -10.9540   -0.3290 N   0  0  0  0  0  0  0  0  0  0  0  0
   78.2900  -11.8400   -1.4740 C   0  0  2  0  0  0  0  0  0  0  0  0
   79.6770  -12.4660   -1.5010 C   0  0  0  0  0  0  0  0  0  0  0  0
   80.6710  -11.8170   -1.1590 O   0  0  0  0  0  0  0  0  0  0  0  0
   78.0310  -11.0760   -2.7790 C   0  0  0  0  0  0  0  0  0  0  0  0
   76.7360  -10.2960   -2.7670 C   0  0  0  0  0  0  0  0  0  0  0  0
   75.5150  -10.9470   -2.8810 C   0  0  0  0  0  0  0  0  0  0  0  0
   76.7310   -8.9120   -2.6350 C   0  0  0  0  0  0  0  0  0  0  0  0
   74.3270  -10.2490   -2.8640 C   0  0  0  0  0  0  0  0  0  0  0  0
   75.5430   -8.2020   -2.6190 C   0  0  0  0  0  0  0  0  0  0  0  0
   74.3440   -8.8780   -2.7330 C   0  0  0  0  0  0  0  0  0  0  0  0
   73.1530   -8.1880   -2.7180 O   0  0  0  0  0  0  0  0  0  0  0  0
  2  1  1  6
  3  2  1  0
  4  3  2  0
  5  2  1  0
  6  5  1  0
  7  6  1  0
  8  7  1  0
  9  8  1  0
 11 10  1  6
 12 11  1  0
 13 12  2  0
 14 11  1  0
 15 14  1  0
 16 15  2  0
 17 15  1  0
 18 16  1  0
 19 17  2  0
 20 19  1  0
 20 18  2  0
 21 20  1  0
 23 22  1  6
 24 23  1  0
 25 24  2  0
 26 23  1  0
 27 26  1  0
 28 27  1  0
 29 28  1  0
 30 29  1  0
 31 30  1  0
 32 30  2  0
 33 24  1  0
 34 33  1  0
 35 34  1  0
 36 35  2  0
 34 37  1  1
 38 37  1  0
 39 38  1  0
 40 38  1  0
 41 35  1  0
 42 41  1  0
 43 42  1  0
 44 43  2  0
 42 45  1  1
 46 45  1  0
 47 46  2  0
 48 46  1  0
 49 47  1  0
 50 48  2  0
 51 50  1  0
 51 49  2  0
 52 43  1  0
 53 52  1  0
 54 53  1  0
 55 54  2  0
 53 56  1  6
 57 56  1  0
 58 57  1  0
 59 58  1  0
 60 59  1  0
 61 60  1  0
 62 60  2  0
 63 54  1  0
 64 63  1  0
 65 64  1  0
 66 65  2  0
 64 67  1  1
 68 67  1  0
 69 68  1  0
 70 69  1  0
 71 70  1  0
 73 72  1  6
 74 73  1  0
 75 74  2  0
 76 73  1  0
 77 76  1  0
 78 77  2  0
 79 77  1  0
 80 78  1  0
 81 79  2  0
 82 81  1  0
 82 80  2  0
 83 82  1  0
 84 74  1  0
 85 84  1  0
 86 85  1  0
 87 86  2  0
 85 88  1  1
 89 88  1  0
 90 89  1  0
 91 90  2  0
 92 90  1  0
 93 86  1  0
 94 93  1  0
 95 94  1  0
 96 95  2  0
 94 97  1  6
 98 95  1  0
 99 98  1  0
100 99  1  0
101100  2  0
102100  1  0
103102  1  0
104103  1  0
105104  2  0
103106  1  1
107106  1  0
108104  1  0
109108  1  6
110109  1  0
111110  2  0
112109  1  0
113112  1  0
112114  1  1
116115  1  1
117116  1  0
118117  2  0
119116  1  0
120119  1  0
121120  2  0
122120  1  0
123121  1  0
124122  2  0
125123  2  0
125124  1  0
126117  1  0
127126  1  0
128127  1  0
129128  2  0
127130  1  1
131130  1  0
132131  2  0
133131  1  0
135134  1  1
136135  1  0
137136  2  0
138135  1  0
139138  1  0
140139  2  0
141139  1  0
142140  1  0
143141  2  0
144143  1  0
144142  2  0
145144  1  0
M  END
$$$$
