
     RDKit          3D

121121  0  0  0  0  0  0  0  0999 V2000
  121.3270   25.7420   53.3510 N   0  0  0  0  0  0  0  0  0  0  0  0
  120.8300   24.5030   53.9440 C   0  0  2  0  0  0  0  0  0  0  0  0
  120.2840   24.7460   55.3450 C   0  0  0  0  0  0  0  0  0  0  0  0
  119.2680   24.1590   55.7340 O   0  0  0  0  0  0  0  0  0  0  0  0
  121.9350   23.4480   53.9710 C   0  0  0  0  0  0  0  0  0  0  0  0
  122.2270   22.8750   52.5990 C   0  0  0  0  0  0  0  0  0  0  0  0
  121.2950   22.8140   51.7700 O   0  0  0  0  0  0  0  0  0  0  0  0
  123.3860   22.4800   52.3510 O   0  0  0  0  0  0  0  0  0  0  0  0
  127.9250   19.9130   53.0390 N   0  0  0  0  0  0  0  0  0  0  0  0
  127.1970   19.1310   52.0520 C   0  0  2  0  0  0  0  0  0  0  0  0
  125.7090   19.1870   52.3620 C   0  0  0  0  0  0  0  0  0  0  0  0
  125.3040   19.3770   53.5120 O   0  0  0  0  0  0  0  0  0  0  0  0
  127.6800   17.6720   52.0180 C   0  0  0  0  0  0  0  0  0  0  0  0
  127.4010   16.8920   53.2870 C   0  0  0  0  0  0  0  0  0  0  0  0
  128.2950   16.9140   54.3490 C   0  0  0  0  0  0  0  0  0  0  0  0
  126.2520   16.1220   53.4150 C   0  0  0  0  0  0  0  0  0  0  0  0
  128.0460   16.2010   55.5080 C   0  0  0  0  0  0  0  0  0  0  0  0
  125.9950   15.4050   54.5690 C   0  0  0  0  0  0  0  0  0  0  0  0
  126.8960   15.4480   55.6120 C   0  0  0  0  0  0  0  0  0  0  0  0
  126.6440   14.7360   56.7620 O   0  0  0  0  0  0  0  0  0  0  0  0
  124.8990   19.0200   51.3210 N   0  0  0  0  0  0  0  0  0  0  0  0
  123.4480   19.0070   51.4450 C   0  0  2  0  0  0  0  0  0  0  0  0
  122.9780   17.5600   51.5150 C   0  0  0  0  0  0  0  0  0  0  0  0
  123.2840   16.7600   50.6240 O   0  0  0  0  0  0  0  0  0  0  0  0
  122.7930   19.7330   50.2710 C   0  0  0  0  0  0  0  0  0  0  0  0
  123.1640   21.1010   50.2430 O   0  0  0  0  0  0  0  0  0  0  0  0
  116.5920   16.9830   50.0430 N   0  0  0  0  0  0  0  0  0  0  0  0
  115.9300   16.6960   48.7820 C   0  0  2  0  0  0  0  0  0  0  0  0
  116.4430   17.6770   47.7380 C   0  0  0  0  0  0  0  0  0  0  0  0
  116.2500   18.8900   47.9060 O   0  0  0  0  0  0  0  0  0  0  0  0
  114.4190   16.8160   48.9620 C   0  0  0  0  0  0  0  0  0  0  0  0
  113.5640   16.6250   47.7350 C   0  0  0  0  0  0  0  0  0  0  0  0
  113.7940   15.5800   46.8600 C   0  0  0  0  0  0  0  0  0  0  0  0
  112.4720   17.4430   47.4960 C   0  0  0  0  0  0  0  0  0  0  0  0
  113.0000   15.3930   45.7570 C   0  0  0  0  0  0  0  0  0  0  0  0
  111.6660   17.2540   46.3890 C   0  0  0  0  0  0  0  0  0  0  0  0
  111.9380   16.2280   45.5220 C   0  0  0  0  0  0  0  0  0  0  0  0
  111.1450   16.0270   44.4160 O   0  0  0  0  0  0  0  0  0  0  0  0
  117.0970   17.2100   46.6680 N   0  0  0  0  0  0  0  0  0  0  0  0
  117.9400   18.1030   45.8560 C   0  0  2  0  0  0  0  0  0  0  0  0
  117.1950   19.3190   45.3250 C   0  0  0  0  0  0  0  0  0  0  0  0
  116.0260   19.2440   44.9440 O   0  0  0  0  0  0  0  0  0  0  0  0
  118.4190   17.1970   44.7140 C   0  0  0  0  0  0  0  0  0  0  0  0
  117.4610   16.0490   44.6970 C   0  0  0  0  0  0  0  0  0  0  0  0
  117.0750   15.8420   46.1260 C   0  0  0  0  0  0  0  0  0  0  0  0
  117.9010   20.4490   45.3010 N   0  0  0  0  0  0  0  0  0  0  0  0
  117.3220   21.7240   44.9140 C   0  0  2  0  0  0  0  0  0  0  0  0
  118.4060   22.5990   44.3020 C   0  0  0  0  0  0  0  0  0  0  0  0
  119.6020   22.3400   44.4560 O   0  0  0  0  0  0  0  0  0  0  0  0
  116.6880   22.4400   46.1140 C   0  0  0  0  0  0  0  0  0  0  0  0
  117.6940   22.8680   47.1620 C   0  0  0  0  0  0  0  0  0  0  0  0
  118.0600   22.0110   48.1920 C   0  0  0  0  0  0  0  0  0  0  0  0
  118.2760   24.1300   47.1230 C   0  0  0  0  0  0  0  0  0  0  0  0
  118.9790   22.3970   49.1500 C   0  0  0  0  0  0  0  0  0  0  0  0
  119.1980   24.5230   48.0740 C   0  0  0  0  0  0  0  0  0  0  0  0
  119.5450   23.6530   49.0860 C   0  0  0  0  0  0  0  0  0  0  0  0
  120.4600   24.0420   50.0370 O   0  0  0  0  0  0  0  0  0  0  0  0
  117.9690   23.6440   43.6030 N   0  0  0  0  0  0  0  0  0  0  0  0
  118.8600   24.6940   43.1340 C   0  0  2  0  0  0  0  0  0  0  0  0
  118.2570   26.0520   43.4640 C   0  0  0  0  0  0  0  0  0  0  0  0
  117.0580   26.1790   43.7260 O   0  0  0  0  0  0  0  0  0  0  0  0
  119.1420   24.5960   41.6230 C   0  0  0  0  0  0  0  0  0  0  0  0
  117.8860   24.7080   40.7750 C   0  0  0  0  0  0  0  0  0  0  0  0
  116.7720   24.6920   41.3350 O   0  0  0  0  0  0  0  0  0  0  0  0
  118.0150   24.8230   39.5370 O   0  0  0  0  0  0  0  0  0  0  0  0
  119.1140   27.0670   43.4620 N   0  0  0  0  0  0  0  0  0  0  0  0
  118.6870   28.4500   43.6500 C   0  0  2  0  0  0  0  0  0  0  0  0
  119.2440   29.2600   42.4860 C   0  0  0  0  0  0  0  0  0  0  0  0
  120.4640   29.4700   42.4120 O   0  0  0  0  0  0  0  0  0  0  0  0
  119.1540   29.0080   45.0030 C   0  0  0  0  0  0  0  0  0  0  0  0
  118.7000   30.4500   45.1670 C   0  0  0  0  0  0  0  0  0  0  0  0
  118.6370   28.1450   46.1470 C   0  0  0  0  0  0  0  0  0  0  0  0
  118.4020   29.7180   41.5550 N   0  0  0  0  0  0  0  0  0  0  0  0
  118.9270   30.4260   40.3750 C   0  0  2  0  0  0  0  0  0  0  0  0
  119.7460   31.6570   40.7160 C   0  0  0  0  0  0  0  0  0  0  0  0
  120.7120   31.9630   40.0050 O   0  0  0  0  0  0  0  0  0  0  0  0
  117.6550   30.7920   39.5970 C   0  0  0  0  0  0  0  0  0  0  0  0
  116.6400   29.7880   40.0410 C   0  0  0  0  0  0  0  0  0  0  0  0
  116.9420   29.5360   41.4890 C   0  0  0  0  0  0  0  0  0  0  0  0
  121.7610   32.3890   43.6280 N   0  0  0  0  0  0  0  0  0  0  0  0
  122.2790   31.8570   44.8860 C   0  0  2  0  0  0  0  0  0  0  0  0
  123.0130   32.9240   45.6900 C   0  0  0  0  0  0  0  0  0  0  0  0
  122.8520   33.0040   46.9130 O   0  0  0  0  0  0  0  0  0  0  0  0
  123.2050   30.6730   44.6040 C   0  0  0  0  0  0  0  0  0  0  0  0
  123.7160   29.9750   45.8450 C   0  0  0  0  0  0  0  0  0  0  0  0
  122.9360   29.0380   46.5080 C   0  0  0  0  0  0  0  0  0  0  0  0
  124.9760   30.2580   46.3560 C   0  0  0  0  0  0  0  0  0  0  0  0
  123.3980   28.3960   47.6400 C   0  0  0  0  0  0  0  0  0  0  0  0
  125.4460   29.6230   47.4910 C   0  0  0  0  0  0  0  0  0  0  0  0
  124.6520   28.6940   48.1290 C   0  0  0  0  0  0  0  0  0  0  0  0
  125.1150   28.0590   49.2590 O   0  0  0  0  0  0  0  0  0  0  0  0
  119.3050   11.5870   42.8880 N   0  0  0  0  0  0  0  0  0  0  0  0
  119.9770   12.0620   44.0920 C   0  0  2  0  0  0  0  0  0  0  0  0
  119.1890   11.5500   45.2870 C   0  0  0  0  0  0  0  0  0  0  0  0
  118.0260   11.9290   45.4760 O   0  0  0  0  0  0  0  0  0  0  0  0
  120.0820   13.5940   44.1220 C   0  0  2  0  0  0  0  0  0  0  0  0
  120.7210   14.1100   42.8310 C   0  0  0  0  0  0  0  0  0  0  0  0
  120.8800   14.0500   45.3350 C   0  0  0  0  0  0  0  0  0  0  0  0
  122.1140   13.5870   42.5940 C   0  0  0  0  0  0  0  0  0  0  0  0
  119.8240   10.7010   46.0960 N   0  0  0  0  0  0  0  0  0  0  0  0
  119.1450    9.9740   47.1700 C   0  0  2  0  0  0  0  0  0  0  0  0
  117.8710    9.3070   46.6510 C   0  0  0  0  0  0  0  0  0  0  0  0
  116.7850    9.4470   47.2190 O   0  0  0  0  0  0  0  0  0  0  0  0
  118.8450   10.8850   48.3640 C   0  0  0  0  0  0  0  0  0  0  0  0
  119.9140   10.8760   49.4500 C   0  0  0  0  0  0  0  0  0  0  0  0
  121.0180   11.8920   49.2070 C   0  0  0  0  0  0  0  0  0  0  0  0
  120.5450   13.2640   49.3790 N   0  0  0  0  0  0  0  0  0  0  0  0
  121.2630   14.3430   49.0860 C   0  0  0  0  0  0  0  0  0  0  0  0
  122.4940   14.2140   48.6090 N   0  0  0  0  0  0  0  0  0  0  0  0
  120.7530   15.5520   49.2760 N   0  0  0  0  0  0  0  0  0  0  0  0
  113.5920   17.5150   41.0360 N   0  0  0  0  0  0  0  0  0  0  0  0
  114.3230   18.6620   41.5580 C   0  0  2  0  0  0  0  0  0  0  0  0
  113.3460   19.7350   42.0260 C   0  0  0  0  0  0  0  0  0  0  0  0
  112.1610   19.7190   41.6820 O   0  0  0  0  0  0  0  0  0  0  0  0
  115.2730   19.2560   40.5070 C   0  0  0  0  0  0  0  0  0  0  0  0
  116.3490   18.3060   39.9980 C   0  0  0  0  0  0  0  0  0  0  0  0
  117.3410   17.9350   41.0850 C   0  0  0  0  0  0  0  0  0  0  0  0
  118.5340   17.2910   40.5380 N   0  0  0  0  0  0  0  0  0  0  0  0
  118.6970   15.9770   40.4290 C   0  0  0  0  0  0  0  0  0  0  0  0
  117.7400   15.1510   40.8270 N   0  0  0  0  0  0  0  0  0  0  0  0
  119.8190   15.4880   39.9180 N   0  0  0  0  0  0  0  0  0  0  0  0
  2  1  1  1
  3  2  1  0
  4  3  2  0
  5  2  1  0
  6  5  1  0
  7  6  2  0
  8  6  1  0
 10  9  1  1
 11 10  1  0
 12 11  2  0
 13 10  1  0
 14 13  1  0
 15 14  2  0
 16 14  1  0
 17 15  1  0
 18 16  2  0
 19 18  1  0
 19 17  2  0
 20 19  1  0
 21 11  1  0
 22 21  1  0
 23 22  1  0
 24 23  2  0
 22 25  1  6
 26 25  1  0
 28 27  1  1
 29 28  1  0
 30 29  2  0
 31 28  1  0
 32 31  1  0
 33 32  2  0
 34 32  1  0
 35 33  1  0
 36 34  2  0
 37 35  2  0
 37 36  1  0
 38 37  1  0
 39 29  1  0
 40 39  1  0
 40 41  1  6
 42 41  2  0
 43 40  1  0
 44 43  1  0
 45 44  1  0
 45 39  1  0
 46 41  1  0
 47 46  1  0
 48 47  1  0
 49 48  2  0
 47 50  1  1
 51 50  1  0
 52 51  2  0
 53 51  1  0
 54 52  1  0
 55 53  2  0
 56 55  1  0
 56 54  2  0
 57 56  1  0
 58 48  1  0
 59 58  1  0
 60 59  1  0
 61 60  2  0
 59 62  1  6
 63 62  1  0
 64 63  2  0
 65 63  1  0
 66 60  1  0
 67 66  1  6
 68 67  1  0
 69 68  2  0
 70 67  1  0
 71 70  1  0
 72 70  1  0
 73 68  1  0
 74 73  1  0
 74 75  1  1
 76 75  2  0
 77 74  1  0
 78 77  1  0
 79 78  1  0
 79 73  1  0
 81 80  1  6
 82 81  1  0
 83 82  2  0
 84 81  1  0
 85 84  1  0
 86 85  2  0
 87 85  1  0
 88 86  1  0
 89 87  2  0
 90 88  2  0
 90 89  1  0
 91 90  1  0
 93 92  1  6
 94 93  1  0
 95 94  2  0
 96 93  1  0
 97 96  1  0
 96 98  1  1
 99 97  1  0
100 94  1  0
101100  1  0
102101  1  0
103102  2  0
101104  1  1
105104  1  0
106105  1  0
107106  1  0
108107  1  0
109108  1  0
110108  2  0
112111  1  6
113112  1  0
114113  2  0
115112  1  0
116115  1  0
117116  1  0
118117  1  0
119118  1  0
120119  1  0
121119  2  0
M  END
$$$$
