
     RDKit          3D

119119  0  0  0  0  0  0  0  0999 V2000
  -39.1650   -9.0040   14.6400 N   0  0  0  0  0  0  0  0  0  0  0  0
  -40.0400   -7.8550   14.6570 C   0  0  2  0  0  0  0  0  0  0  0  0
  -39.4110   -6.6960   15.4360 C   0  0  0  0  0  0  0  0  0  0  0  0
  -38.6220   -6.8800   16.3530 O   0  0  0  0  0  0  0  0  0  0  0  0
  -41.3690   -8.1920   15.3580 C   0  0  0  0  0  0  0  0  0  0  0  0
  -42.4380   -8.7340   14.5260 C   0  0  0  0  0  0  0  0  0  0  0  0
  -43.6090   -9.1340   15.4790 C   0  0  0  0  0  0  0  0  0  0  0  0
  -44.1870   -7.9670   16.1320 N   0  0  0  0  0  0  0  0  0  0  0  0
  -45.3140   -8.0130   16.8540 C   0  0  0  0  0  0  0  0  0  0  0  0
  -45.9360   -9.1660   17.0230 N   0  0  0  0  0  0  0  0  0  0  0  0
  -45.8190   -6.9170   17.3930 N   0  0  0  0  0  0  0  0  0  0  0  0
  -43.0100  -14.7040    3.8780 N   0  0  0  0  0  0  0  0  0  0  0  0
  -43.1290  -15.7740    4.8580 C   0  0  2  0  0  0  0  0  0  0  0  0
  -41.8500  -16.5880    5.0040 C   0  0  0  0  0  0  0  0  0  0  0  0
  -41.8790  -17.6690    5.5790 O   0  0  0  0  0  0  0  0  0  0  0  0
  -44.2920  -16.6840    4.4790 C   0  0  0  0  0  0  0  0  0  0  0  0
  -45.6170  -15.9620    4.5190 C   0  0  0  0  0  0  0  0  0  0  0  0
  -46.2940  -15.7770    5.7190 C   0  0  0  0  0  0  0  0  0  0  0  0
  -46.1780  -15.4390    3.3580 C   0  0  0  0  0  0  0  0  0  0  0  0
  -47.4980  -15.1050    5.7620 C   0  0  0  0  0  0  0  0  0  0  0  0
  -47.3870  -14.7670    3.3970 C   0  0  0  0  0  0  0  0  0  0  0  0
  -48.0400  -14.6030    4.5990 C   0  0  0  0  0  0  0  0  0  0  0  0
  -49.2330  -13.9300    4.6320 O   0  0  0  0  0  0  0  0  0  0  0  0
  -39.9310  -17.9020   13.4290 N   0  0  0  0  0  0  0  0  0  0  0  0
  -39.5270  -17.9160   14.8280 C   0  0  2  0  0  0  0  0  0  0  0  0
  -40.1860  -19.1200   15.5050 C   0  0  0  0  0  0  0  0  0  0  0  0
  -41.2200  -19.5980   15.0710 O   0  0  0  0  0  0  0  0  0  0  0  0
  -39.8950  -16.6180   15.5580 C   0  0  0  0  0  0  0  0  0  0  0  0
  -41.3960  -16.4190   15.7360 C   0  0  0  0  0  0  0  0  0  0  0  0
  -42.1470  -15.8520   14.7310 C   0  0  0  0  0  0  0  0  0  0  0  0
  -42.0150  -16.7920   16.9060 C   0  0  0  0  0  0  0  0  0  0  0  0
  -43.5250  -15.6710   14.8700 C   0  0  0  0  0  0  0  0  0  0  0  0
  -43.4000  -16.6180   17.0760 C   0  0  0  0  0  0  0  0  0  0  0  0
  -44.1360  -16.0500   16.0550 C   0  0  0  0  0  0  0  0  0  0  0  0
  -45.4830  -15.8730   16.1980 O   0  0  0  0  0  0  0  0  0  0  0  0
  -44.4660  -18.1920   11.0000 N   0  0  0  0  0  0  0  0  0  0  0  0
  -43.9010  -17.2020   10.0960 C   0  0  2  0  0  0  0  0  0  0  0  0
  -44.3450  -15.7940   10.4800 C   0  0  0  0  0  0  0  0  0  0  0  0
  -45.4770  -15.5850   10.8870 O   0  0  0  0  0  0  0  0  0  0  0  0
  -44.3070  -17.5090    8.6570 C   0  0  0  0  0  0  0  0  0  0  0  0
  -43.8470  -16.4890    7.7900 O   0  0  0  0  0  0  0  0  0  0  0  0
  -43.4270  -14.8440   10.3740 N   0  0  0  0  0  0  0  0  0  0  0  0
  -43.7520  -13.4470   10.6230 C   0  0  2  0  0  0  0  0  0  0  0  0
  -44.6730  -12.8860    9.5370 C   0  0  0  0  0  0  0  0  0  0  0  0
  -45.5130  -12.0400    9.8060 O   0  0  0  0  0  0  0  0  0  0  0  0
  -42.4630  -12.6120   10.6810 C   0  0  0  0  0  0  0  0  0  0  0  0
  -41.6810  -12.6910   11.9660 C   0  0  0  0  0  0  0  0  0  0  0  0
  -42.1820  -12.1660   13.1540 C   0  0  0  0  0  0  0  0  0  0  0  0
  -40.4120  -13.2650   11.9900 C   0  0  0  0  0  0  0  0  0  0  0  0
  -41.4580  -12.2190   14.3220 C   0  0  0  0  0  0  0  0  0  0  0  0
  -39.6880  -13.3350   13.1600 C   0  0  0  0  0  0  0  0  0  0  0  0
  -40.2020  -12.8040   14.3200 C   0  0  0  0  0  0  0  0  0  0  0  0
  -39.4550  -12.8750   15.4640 O   0  0  0  0  0  0  0  0  0  0  0  0
  -44.4750  -13.2980    8.2930 N   0  0  0  0  0  0  0  0  0  0  0  0
  -45.2760  -12.7650    7.1970 C   0  0  0  0  0  0  0  0  0  0  0  0
  -45.2480  -11.2520    7.0850 C   0  0  0  0  0  0  0  0  0  0  0  0
  -46.3010  -10.6090    7.0800 O   0  0  0  0  0  0  0  0  0  0  0  0
  -44.0530  -10.6770    6.9660 N   0  0  0  0  0  0  0  0  0  0  0  0
  -43.9130   -9.2280    6.9600 C   0  0  2  0  0  0  0  0  0  0  0  0
  -44.5540   -8.6110    5.7180 C   0  0  0  0  0  0  0  0  0  0  0  0
  -44.2640   -9.0320    4.5940 O   0  0  0  0  0  0  0  0  0  0  0  0
  -42.4320   -8.8520    7.0080 C   0  0  0  0  0  0  0  0  0  0  0  0
  -41.7350   -9.2600    8.2790 C   0  0  0  0  0  0  0  0  0  0  0  0
  -42.0400   -8.6510    9.4800 C   0  0  0  0  0  0  0  0  0  0  0  0
  -40.7400  -10.2260    8.2500 C   0  0  0  0  0  0  0  0  0  0  0  0
  -41.3640   -9.0040   10.6500 C   0  0  0  0  0  0  0  0  0  0  0  0
  -40.0680  -10.5930    9.4180 C   0  0  0  0  0  0  0  0  0  0  0  0
  -40.4080   -9.9730   10.6230 C   0  0  0  0  0  0  0  0  0  0  0  0
  -45.3980   -7.5880    5.9250 N   0  0  0  0  0  0  0  0  0  0  0  0
  -45.9820   -6.8000    4.8800 C   0  0  2  0  0  0  0  0  0  0  0  0
  -45.5570   -5.3480    5.0210 C   0  0  0  0  0  0  0  0  0  0  0  0
  -45.4900   -4.8410    6.1440 O   0  0  0  0  0  0  0  0  0  0  0  0
  -47.5320   -6.8790    4.9150 C   0  0  0  0  0  0  0  0  0  0  0  0
  -48.0960   -8.2570    4.6490 C   0  0  0  0  0  0  0  0  0  0  0  0
  -49.6100   -8.2930    4.7400 C   0  0  0  0  0  0  0  0  0  0  0  0
  -50.2010   -9.2780    5.1920 O   0  0  0  0  0  0  0  0  0  0  0  0
  -50.2520   -7.2110    4.3200 N   0  0  0  0  0  0  0  0  0  0  0  0
  -47.0020   -2.5870    4.7540 N   0  0  0  0  0  0  0  0  0  0  0  0
  -47.9650   -1.7270    5.4190 C   0  0  2  0  0  0  0  0  0  0  0  0
  -48.0450   -1.9620    6.9200 C   0  0  0  0  0  0  0  0  0  0  0  0
  -48.8550   -1.3070    7.5910 O   0  0  0  0  0  0  0  0  0  0  0  0
  -49.3560   -1.9400    4.8050 C   0  0  2  0  0  0  0  0  0  0  0  0
  -49.6600   -3.3420    4.7980 O   0  0  0  0  0  0  0  0  0  0  0  0
  -49.4020   -1.4070    3.3900 C   0  0  0  0  0  0  0  0  0  0  0  0
  -47.2390   -2.8740    7.4560 N   0  0  0  0  0  0  0  0  0  0  0  0
  -47.2570   -3.1610    8.8890 C   0  0  2  0  0  0  0  0  0  0  0  0
  -46.9150   -1.9090    9.6880 C   0  0  0  0  0  0  0  0  0  0  0  0
  -46.1000   -1.0760    9.2820 O   0  0  0  0  0  0  0  0  0  0  0  0
  -46.2530   -4.2650    9.2260 C   0  0  0  0  0  0  0  0  0  0  0  0
  -46.7930   -5.6440    8.9560 C   0  0  0  0  0  0  0  0  0  0  0  0
  -47.9190   -5.7930    8.5300 O   0  0  0  0  0  0  0  0  0  0  0  0
  -45.9870   -6.6630    9.2190 N   0  0  0  0  0  0  0  0  0  0  0  0
  -47.5450   -1.7770   10.8540 N   0  0  0  0  0  0  0  0  0  0  0  0
  -47.0220   -0.8820   11.8620 C   0  0  0  0  0  0  0  0  0  0  0  0
  -45.5900   -1.2400   12.2250 C   0  0  0  0  0  0  0  0  0  0  0  0
  -45.1540   -2.3800   12.0870 O   0  0  0  0  0  0  0  0  0  0  0  0
  -44.8530   -0.2390   12.7120 N   0  0  0  0  0  0  0  0  0  0  0  0
  -43.4040   -0.3970   12.8860 C   0  0  2  0  0  0  0  0  0  0  0  0
  -43.0820   -1.5590   13.8100 C   0  0  0  0  0  0  0  0  0  0  0  0
  -42.1030   -2.2820   13.5980 O   0  0  0  0  0  0  0  0  0  0  0  0
  -42.7880    0.9130   13.4040 C   0  0  0  0  0  0  0  0  0  0  0  0
  -41.2930    0.7330   13.6430 C   0  0  0  0  0  0  0  0  0  0  0  0
  -43.0290    2.0370   12.4210 C   0  0  0  0  0  0  0  0  0  0  0  0
  -43.8730   -1.7390   14.8750 N   0  0  0  0  0  0  0  0  0  0  0  0
  -43.6320   -2.8470   15.7800 C   0  0  0  0  0  0  0  0  0  0  0  0
  -43.7770   -4.2050   15.1370 C   0  0  0  0  0  0  0  0  0  0  0  0
  -43.2020   -5.1810   15.6440 O   0  0  0  0  0  0  0  0  0  0  0  0
  -44.5230   -4.2880   14.0290 N   0  0  0  0  0  0  0  0  0  0  0  0
  -44.6680   -5.4960   13.2430 C   0  0  2  0  0  0  0  0  0  0  0  0
  -43.7110   -5.5460   12.0340 C   0  0  0  0  0  0  0  0  0  0  0  0
  -43.7520   -6.5110   11.2610 O   0  0  0  0  0  0  0  0  0  0  0  0
  -46.1000   -5.6210   12.7330 C   0  0  0  0  0  0  0  0  0  0  0  0
  -47.1120   -6.0530   13.7780 C   0  0  0  0  0  0  0  0  0  0  0  0
  -47.7550   -5.1190   14.5750 C   0  0  0  0  0  0  0  0  0  0  0  0
  -47.4340   -7.3910   13.9410 C   0  0  0  0  0  0  0  0  0  0  0  0
  -48.7040   -5.5110   15.5080 C   0  0  0  0  0  0  0  0  0  0  0  0
  -48.3780   -7.7950   14.8750 C   0  0  0  0  0  0  0  0  0  0  0  0
  -48.9950   -6.8460   15.6590 C   0  0  0  0  0  0  0  0  0  0  0  0
  -49.9260   -7.2490   16.5840 O   0  0  0  0  0  0  0  0  0  0  0  0
  2  1  1  1
  3  2  1  0
  4  3  2  0
  5  2  1  0
  6  5  1  0
  7  6  1  0
  8  7  1  0
  9  8  1  0
 10  9  1  0
 11  9  2  0
 13 12  1  6
 14 13  1  0
 15 14  2  0
 16 13  1  0
 17 16  1  0
 18 17  2  0
 19 17  1  0
 20 18  1  0
 21 19  2  0
 22 21  1  0
 22 20  2  0
 23 22  1  0
 25 24  1  6
 26 25  1  0
 27 26  2  0
 28 25  1  0
 29 28  1  0
 30 29  2  0
 31 29  1  0
 32 30  1  0
 33 31  2  0
 34 33  1  0
 34 32  2  0
 35 34  1  0
 37 36  1  1
 38 37  1  0
 39 38  2  0
 40 37  1  0
 41 40  1  0
 42 38  1  0
 43 42  1  0
 44 43  1  0
 45 44  2  0
 43 46  1  6
 47 46  1  0
 48 47  2  0
 49 47  1  0
 50 48  1  0
 51 49  2  0
 52 51  1  0
 52 50  2  0
 53 52  1  0
 54 44  1  0
 55 54  1  0
 56 55  1  0
 57 56  2  0
 58 56  1  0
 59 58  1  0
 60 59  1  0
 61 60  2  0
 59 62  1  6
 63 62  1  0
 64 63  2  0
 65 63  1  0
 66 64  1  0
 67 65  2  0
 68 67  1  0
 68 66  2  0
 69 60  1  0
 70 69  1  0
 71 70  1  0
 72 71  2  0
 70 73  1  1
 74 73  1  0
 75 74  1  0
 76 75  2  0
 77 75  1  0
 79 78  1  6
 80 79  1  0
 81 80  2  0
 82 79  1  0
 83 82  1  0
 82 84  1  6
 85 80  1  0
 86 85  1  0
 87 86  1  0
 88 87  2  0
 86 89  1  6
 90 89  1  0
 91 90  2  0
 92 90  1  0
 93 87  1  0
 94 93  1  0
 95 94  1  0
 96 95  2  0
 97 95  1  0
 98 97  1  1
 99 98  1  0
100 99  2  0
101 98  1  0
102101  1  0
103101  1  0
104 99  1  0
105104  1  0
106105  1  0
107106  2  0
108106  1  0
109108  1  0
110109  1  0
111110  2  0
109112  1  6
113112  1  0
114113  2  0
115113  1  0
116114  1  0
117115  2  0
118117  1  0
118116  2  0
119118  1  0
M  END
$$$$
