
     RDKit          3D

124123  0  0  0  0  0  0  0  0999 V2000
    2.9690  -56.5120    3.6850 N   0  0  0  0  0  0  0  0  0  0  0  0
    4.0670  -55.8830    2.9620 C   0  0  2  0  0  0  0  0  0  0  0  0
    5.2820  -55.7170    3.8650 C   0  0  0  0  0  0  0  0  0  0  0  0
    5.1710  -55.6190    5.0910 O   0  0  0  0  0  0  0  0  0  0  0  0
    3.6670  -54.5010    2.4480 C   0  0  0  0  0  0  0  0  0  0  0  0
    2.8700  -54.4640    1.1690 C   0  0  0  0  0  0  0  0  0  0  0  0
    2.3640  -53.0360    0.9100 C   0  0  0  0  0  0  0  0  0  0  0  0
    3.4420  -52.0480    0.9280 N   0  0  0  0  0  0  0  0  0  0  0  0
    3.3170  -50.7900    0.5100 C   0  0  0  0  0  0  0  0  0  0  0  0
    2.1570  -50.3470    0.0370 N   0  0  0  0  0  0  0  0  0  0  0  0
    4.3570  -49.9710    0.5580 N   0  0  0  0  0  0  0  0  0  0  0  0
   -2.6320  -62.4630   -6.1980 N   0  0  0  0  0  0  0  0  0  0  0  0
   -3.7700  -61.7490   -5.6450 C   0  0  2  0  0  0  0  0  0  0  0  0
   -4.4890  -62.5240   -4.5420 C   0  0  0  0  0  0  0  0  0  0  0  0
   -5.5760  -62.1160   -4.1240 O   0  0  0  0  0  0  0  0  0  0  0  0
   -4.7350  -61.3740   -6.7770 C   0  0  0  0  0  0  0  0  0  0  0  0
   -4.1350  -60.3230   -7.6950 C   0  0  0  0  0  0  0  0  0  0  0  0
   -3.2900  -60.6820   -8.7460 C   0  0  0  0  0  0  0  0  0  0  0  0
   -4.3730  -58.9700   -7.4810 C   0  0  0  0  0  0  0  0  0  0  0  0
   -2.7170  -59.7220   -9.5740 C   0  0  0  0  0  0  0  0  0  0  0  0
   -3.8080  -58.0050   -8.2980 C   0  0  0  0  0  0  0  0  0  0  0  0
   -2.9820  -58.3830   -9.3420 C   0  0  0  0  0  0  0  0  0  0  0  0
   -2.4290  -57.4080  -10.1440 O   0  0  0  0  0  0  0  0  0  0  0  0
   -5.9200  -57.5090    2.3560 N   0  0  0  0  0  0  0  0  0  0  0  0
   -5.9270  -56.7040    3.5680 C   0  0  2  0  0  0  0  0  0  0  0  0
   -7.1980  -55.8750    3.5870 C   0  0  0  0  0  0  0  0  0  0  0  0
   -7.7700  -55.5770    2.5350 O   0  0  0  0  0  0  0  0  0  0  0  0
   -4.7110  -55.7730    3.6540 C   0  0  0  0  0  0  0  0  0  0  0  0
   -4.6080  -54.7930    2.5060 C   0  0  0  0  0  0  0  0  0  0  0  0
   -5.1390  -53.5070    2.6030 C   0  0  0  0  0  0  0  0  0  0  0  0
   -3.9730  -55.1560    1.3260 C   0  0  0  0  0  0  0  0  0  0  0  0
   -5.0390  -52.6070    1.5360 C   0  0  0  0  0  0  0  0  0  0  0  0
   -3.8680  -54.2720    0.2620 C   0  0  0  0  0  0  0  0  0  0  0  0
   -4.3990  -53.0010    0.3690 C   0  0  0  0  0  0  0  0  0  0  0  0
   -4.2840  -52.1390   -0.7020 O   0  0  0  0  0  0  0  0  0  0  0  0
   -8.8360  -55.3590   -0.1290 N   0  0  0  0  0  0  0  0  0  0  0  0
   -8.0170  -55.1110   -1.3010 C   0  0  2  0  0  0  0  0  0  0  0  0
   -6.8900  -56.1320   -1.3150 C   0  0  0  0  0  0  0  0  0  0  0  0
   -6.5380  -56.7060   -0.2820 O   0  0  0  0  0  0  0  0  0  0  0  0
   -7.4720  -53.6750   -1.3030 C   0  0  0  0  0  0  0  0  0  0  0  0
   -6.8670  -53.2460   -2.6210 C   0  0  0  0  0  0  0  0  0  0  0  0
   -7.8110  -53.4640   -3.7840 C   0  0  0  0  0  0  0  0  0  0  0  0
   -9.0000  -53.1490   -3.6990 O   0  0  0  0  0  0  0  0  0  0  0  0
   -7.2900  -54.0150   -4.8770 N   0  0  0  0  0  0  0  0  0  0  0  0
   -6.3250  -56.3620   -2.4940 N   0  0  0  0  0  0  0  0  0  0  0  0
   -5.2800  -57.3580   -2.6720 C   0  0  2  0  0  0  0  0  0  0  0  0
   -3.9170  -56.7060   -2.8650 C   0  0  0  0  0  0  0  0  0  0  0  0
   -3.7960  -55.6400   -3.4770 O   0  0  0  0  0  0  0  0  0  0  0  0
   -5.5730  -58.2550   -3.8720 C   0  0  0  0  0  0  0  0  0  0  0  0
   -4.4590  -59.0880   -4.1170 O   0  0  0  0  0  0  0  0  0  0  0  0
   -2.8860  -57.3740   -2.3460 N   0  0  0  0  0  0  0  0  0  0  0  0
   -1.5230  -56.8790   -2.5020 C   0  0  2  0  0  0  0  0  0  0  0  0
   -1.0120  -57.0890   -3.9220 C   0  0  0  0  0  0  0  0  0  0  0  0
   -0.3340  -56.2180   -4.4790 O   0  0  0  0  0  0  0  0  0  0  0  0
   -0.5950  -57.5840   -1.5210 C   0  0  0  0  0  0  0  0  0  0  0  0
   -0.7210  -57.1750   -0.0730 C   0  0  0  0  0  0  0  0  0  0  0  0
   -0.3190  -55.9140    0.3530 C   0  0  0  0  0  0  0  0  0  0  0  0
   -1.1970  -58.0680    0.8790 C   0  0  0  0  0  0  0  0  0  0  0  0
   -0.4100  -55.5490    1.6760 C   0  0  0  0  0  0  0  0  0  0  0  0
   -1.2950  -57.7090    2.2090 C   0  0  0  0  0  0  0  0  0  0  0  0
   -0.8960  -56.4500    2.6000 C   0  0  0  0  0  0  0  0  0  0  0  0
   -0.9870  -56.0890    3.9210 O   0  0  0  0  0  0  0  0  0  0  0  0
   -1.3120  -58.2450   -4.5150 N   0  0  0  0  0  0  0  0  0  0  0  0
   -0.8170  -58.5810   -5.8370 C   0  0  0  0  0  0  0  0  0  0  0  0
    0.6940  -58.6500   -5.9100 C   0  0  0  0  0  0  0  0  0  0  0  0
    1.2990  -58.0480   -6.8030 O   0  0  0  0  0  0  0  0  0  0  0  0
    1.3090  -59.3850   -4.9790 N   0  0  0  0  0  0  0  0  0  0  0  0
    2.7630  -59.4400   -4.8760 C   0  0  2  0  0  0  0  0  0  0  0  0
    3.3790  -59.9500   -6.1700 C   0  0  0  0  0  0  0  0  0  0  0  0
    3.0950  -61.0730   -6.5980 O   0  0  0  0  0  0  0  0  0  0  0  0
    3.1850  -60.3480   -3.7200 C   0  0  0  0  0  0  0  0  0  0  0  0
    2.7530  -59.8660   -2.3680 C   0  0  0  0  0  0  0  0  0  0  0  0
    3.2460  -58.6830   -1.8500 C   0  0  0  0  0  0  0  0  0  0  0  0
    1.8800  -60.6130   -1.6000 C   0  0  0  0  0  0  0  0  0  0  0  0
    2.8610  -58.2400   -0.6020 C   0  0  0  0  0  0  0  0  0  0  0  0
    1.4960  -60.1780   -0.3450 C   0  0  0  0  0  0  0  0  0  0  0  0
    1.9900  -58.9900    0.1520 C   0  0  0  0  0  0  0  0  0  0  0  0
    4.2340  -59.1180   -6.7870 N   0  0  0  0  0  0  0  0  0  0  0  0
    5.0740  -59.4570   -7.9280 C   0  0  2  0  0  0  0  0  0  0  0  0
    6.5250  -59.5660   -7.4880 C   0  0  0  0  0  0  0  0  0  0  0  0
    6.9910  -58.7370   -6.7010 O   0  0  0  0  0  0  0  0  0  0  0  0
    4.9760  -58.4020   -9.0340 C   0  0  0  0  0  0  0  0  0  0  0  0
    3.6200  -58.2860   -9.6810 C   0  0  0  0  0  0  0  0  0  0  0  0
    3.6160  -57.2720  -10.8020 C   0  0  0  0  0  0  0  0  0  0  0  0
    4.5040  -56.4210  -10.8880 O   0  0  0  0  0  0  0  0  0  0  0  0
    2.6220  -57.3580  -11.6730 N   0  0  0  0  0  0  0  0  0  0  0  0
    9.2310  -58.7180   -8.7210 N   0  0  0  0  0  0  0  0  0  0  0  0
   10.0570  -57.5600   -9.0340 C   0  0  2  0  0  0  0  0  0  0  0  0
    9.8070  -56.3850   -8.1000 C   0  0  0  0  0  0  0  0  0  0  0  0
   10.3700  -55.3110   -8.3280 O   0  0  0  0  0  0  0  0  0  0  0  0
    9.8210  -57.1210  -10.4780 C   0  0  2  0  0  0  0  0  0  0  0  0
    8.4260  -56.8430  -10.6760 O   0  0  0  0  0  0  0  0  0  0  0  0
   10.2660  -58.2050  -11.4400 C   0  0  0  0  0  0  0  0  0  0  0  0
    8.9890  -56.5670   -7.0670 N   0  0  0  0  0  0  0  0  0  0  0  0
    8.7130  -55.4990   -6.1200 C   0  0  2  0  0  0  0  0  0  0  0  0
    9.9600  -55.1490   -5.3160 C   0  0  0  0  0  0  0  0  0  0  0  0
   10.8050  -56.0030   -5.0340 O   0  0  0  0  0  0  0  0  0  0  0  0
    7.5840  -55.9060   -5.1660 C   0  0  0  0  0  0  0  0  0  0  0  0
    6.2220  -55.8980   -5.8310 C   0  0  0  0  0  0  0  0  0  0  0  0
    6.0810  -55.4600   -6.9760 O   0  0  0  0  0  0  0  0  0  0  0  0
    5.2090  -56.3610   -5.1130 N   0  0  0  0  0  0  0  0  0  0  0  0
   10.0760  -53.8670   -4.9630 N   0  0  0  0  0  0  0  0  0  0  0  0
   11.0190  -53.4710   -3.9400 C   0  0  0  0  0  0  0  0  0  0  0  0
   10.6460  -54.0630   -2.5960 C   0  0  0  0  0  0  0  0  0  0  0  0
    9.5010  -54.4500   -2.3610 O   0  0  0  0  0  0  0  0  0  0  0  0
   11.6400  -54.1390   -1.7030 N   0  0  0  0  0  0  0  0  0  0  0  0
   11.4460  -54.8190   -0.4190 C   0  0  2  0  0  0  0  0  0  0  0  0
   10.1850  -54.3260    0.2800 C   0  0  0  0  0  0  0  0  0  0  0  0
    9.4410  -55.1130    0.8750 O   0  0  0  0  0  0  0  0  0  0  0  0
   12.6890  -54.6470    0.4780 C   0  0  0  0  0  0  0  0  0  0  0  0
   13.8670  -55.4150   -0.0980 C   0  0  0  0  0  0  0  0  0  0  0  0
   13.0450  -53.1700    0.6350 C   0  0  0  0  0  0  0  0  0  0  0  0
    7.3830  -53.5030   -0.8580 N   0  0  0  0  0  0  0  0  0  0  0  0
    6.1780  -54.1060   -1.4030 C   0  0  2  0  0  0  0  0  0  0  0  0
    6.2640  -55.6210   -1.4870 C   0  0  0  0  0  0  0  0  0  0  0  0
    5.3070  -56.2560   -1.9390 O   0  0  0  0  0  0  0  0  0  0  0  0
    5.8790  -53.5370   -2.7920 C   0  0  0  0  0  0  0  0  0  0  0  0
    5.4500  -52.0830   -2.8130 C   0  0  0  0  0  0  0  0  0  0  0  0
    6.3790  -51.0580   -2.6780 C   0  0  0  0  0  0  0  0  0  0  0  0
    4.1170  -51.7340   -2.9980 C   0  0  0  0  0  0  0  0  0  0  0  0
    5.9880  -49.7230   -2.7140 C   0  0  0  0  0  0  0  0  0  0  0  0
    3.7180  -50.4040   -3.0320 C   0  0  0  0  0  0  0  0  0  0  0  0
    4.6580  -49.4040   -2.8900 C   0  0  0  0  0  0  0  0  0  0  0  0
    4.2680  -48.0810   -2.9160 O   0  0  0  0  0  0  0  0  0  0  0  0
  2  1  1  1
  3  2  1  0
  4  3  2  0
  5  2  1  0
  6  5  1  0
  7  6  1  0
  8  7  1  0
  9  8  1  0
 10  9  1  0
 11  9  2  0
 13 12  1  6
 14 13  1  0
 15 14  2  0
 16 13  1  0
 17 16  1  0
 18 17  2  0
 19 17  1  0
 20 18  1  0
 21 19  2  0
 22 21  1  0
 22 20  2  0
 23 22  1  0
 25 24  1  6
 26 25  1  0
 27 26  2  0
 28 25  1  0
 29 28  1  0
 30 29  2  0
 31 29  1  0
 32 30  1  0
 33 31  2  0
 34 33  1  0
 34 32  2  0
 35 34  1  0
 37 36  1  1
 38 37  1  0
 39 38  2  0
 40 37  1  0
 41 40  1  0
 42 41  1  0
 43 42  2  0
 44 42  1  0
 45 38  1  0
 46 45  1  0
 47 46  1  0
 48 47  2  0
 46 49  1  6
 50 49  1  0
 51 47  1  0
 52 51  1  0
 53 52  1  0
 54 53  2  0
 52 55  1  1
 56 55  1  0
 57 56  2  0
 58 56  1  0
 59 57  1  0
 60 58  2  0
 61 60  1  0
 61 59  2  0
 62 61  1  0
 63 53  1  0
 64 63  1  0
 65 64  1  0
 66 65  2  0
 67 65  1  0
 68 67  1  0
 69 68  1  0
 70 69  2  0
 68 71  1  1
 72 71  1  0
 73 72  2  0
 74 72  1  0
 75 73  1  0
 76 74  2  0
 77 76  1  0
 77 75  2  0
 78 69  1  0
 79 78  1  0
 80 79  1  0
 81 80  2  0
 79 82  1  6
 83 82  1  0
 84 83  1  0
 85 84  2  0
 86 84  1  0
 88 87  1  1
 89 88  1  0
 90 89  2  0
 91 88  1  0
 92 91  1  0
 91 93  1  6
 94 89  1  0
 95 94  1  0
 96 95  1  0
 97 96  2  0
 95 98  1  1
 99 98  1  0
100 99  2  0
101 99  1  0
102 96  1  0
103102  1  0
104103  1  0
105104  2  0
106104  1  0
107106  1  6
108107  1  0
109108  2  0
110107  1  0
111110  1  0
112110  1  0
114113  1  6
115114  1  0
116115  2  0
117114  1  0
118117  1  0
119118  2  0
120118  1  0
121119  1  0
122120  2  0
123122  1  0
123121  2  0
124123  1  0
M  END
$$$$
