
     RDKit          3D

145144  0  0  0  0  0  0  0  0999 V2000
   -2.7460  -48.8750    8.3680 N   0  0  0  0  0  0  0  0  0  0  0  0
   -3.8340  -49.6860    7.8170 C   0  0  2  0  0  0  0  0  0  0  0  0
   -3.8830  -51.0760    8.4400 C   0  0  0  0  0  0  0  0  0  0  0  0
   -4.9680  -51.6100    8.6970 O   0  0  0  0  0  0  0  0  0  0  0  0
   -3.6870  -49.7860    6.2990 C   0  0  0  0  0  0  0  0  0  0  0  0
   -4.5630  -48.8160    5.5260 C   0  0  0  0  0  0  0  0  0  0  0  0
   -3.8580  -48.2860    4.2920 C   0  0  0  0  0  0  0  0  0  0  0  0
   -3.4690  -49.4100    3.3500 C   0  0  0  0  0  0  0  0  0  0  0  0
   -2.2280  -49.0490    2.6180 N   0  0  0  0  0  0  0  0  0  0  0  0
   -6.6970  -51.5560   11.1590 N   0  0  0  0  0  0  0  0  0  0  0  0
   -7.8190  -52.2000   10.5060 C   0  0  2  0  0  0  0  0  0  0  0  0
   -7.6160  -53.6890   10.2440 C   0  0  0  0  0  0  0  0  0  0  0  0
   -8.5350  -54.3370    9.7320 O   0  0  0  0  0  0  0  0  0  0  0  0
   -8.1220  -51.4800    9.1780 C   0  0  0  0  0  0  0  0  0  0  0  0
   -8.3470  -49.9740    9.2900 C   0  0  0  0  0  0  0  0  0  0  0  0
   -9.0630  -49.4300   10.3470 C   0  0  0  0  0  0  0  0  0  0  0  0
   -7.8540  -49.1010    8.3210 C   0  0  0  0  0  0  0  0  0  0  0  0
   -9.2740  -48.0640   10.4400 C   0  0  0  0  0  0  0  0  0  0  0  0
   -8.0600  -47.7350    8.4060 C   0  0  0  0  0  0  0  0  0  0  0  0
   -8.7720  -47.2170    9.4680 C   0  0  0  0  0  0  0  0  0  0  0  0
   -8.9920  -45.8530    9.5580 O   0  0  0  0  0  0  0  0  0  0  0  0
   -7.6420  -55.5050    4.7880 N   0  0  0  0  0  0  0  0  0  0  0  0
   -8.7680  -54.5930    4.8980 C   0  0  2  0  0  0  0  0  0  0  0  0
   -8.2770  -53.1800    4.6310 C   0  0  0  0  0  0  0  0  0  0  0  0
   -7.3050  -52.7280    5.2360 O   0  0  0  0  0  0  0  0  0  0  0  0
   -9.4270  -54.6870    6.2700 C   0  0  0  0  0  0  0  0  0  0  0  0
  -10.6800  -53.8290    6.3850 C   0  0  0  0  0  0  0  0  0  0  0  0
  -11.5020  -54.2240    7.5990 C   0  0  0  0  0  0  0  0  0  0  0  0
  -11.8350  -55.6450    7.5710 N   0  0  0  0  0  0  0  0  0  0  0  0
  -12.9140  -56.1480    6.9750 C   0  0  0  0  0  0  0  0  0  0  0  0
  -13.7720  -55.3420    6.3530 N   0  0  0  0  0  0  0  0  0  0  0  0
  -13.1390  -57.4550    7.0030 N   0  0  0  0  0  0  0  0  0  0  0  0
   -8.9350  -52.4940    3.7050 N   0  0  0  0  0  0  0  0  0  0  0  0
   -8.5740  -51.1340    3.3390 C   0  0  2  0  0  0  0  0  0  0  0  0
   -9.5190  -50.0950    3.9090 C   0  0  0  0  0  0  0  0  0  0  0  0
   -9.0980  -48.9630    4.1510 O   0  0  0  0  0  0  0  0  0  0  0  0
   -8.5310  -50.9990    1.8130 C   0  0  0  0  0  0  0  0  0  0  0  0
   -8.2910  -49.6480    1.1420 C   0  0  0  0  0  0  0  0  0  0  0  0
   -6.9460  -49.0680    1.5370 C   0  0  0  0  0  0  0  0  0  0  0  0
   -8.3860  -49.8170   -0.3660 C   0  0  0  0  0  0  0  0  0  0  0  0
  -10.7740  -50.4610    4.1600 N   0  0  0  0  0  0  0  0  0  0  0  0
  -11.7850  -49.5250    4.6260 C   0  0  2  0  0  0  0  0  0  0  0  0
  -12.4360  -50.0700    5.8880 C   0  0  0  0  0  0  0  0  0  0  0  0
  -12.9030  -51.2140    5.9020 O   0  0  0  0  0  0  0  0  0  0  0  0
  -12.8460  -49.2800    3.5450 C   0  0  0  0  0  0  0  0  0  0  0  0
  -12.2950  -48.7120    2.2600 C   0  0  0  0  0  0  0  0  0  0  0  0
  -11.8210  -47.4110    2.2080 C   0  0  0  0  0  0  0  0  0  0  0  0
  -12.2750  -49.4750    1.1010 C   0  0  0  0  0  0  0  0  0  0  0  0
  -11.3260  -46.8810    1.0240 C   0  0  0  0  0  0  0  0  0  0  0  0
  -11.7790  -48.9500   -0.0940 C   0  0  0  0  0  0  0  0  0  0  0  0
  -11.3040  -47.6550   -0.1290 C   0  0  0  0  0  0  0  0  0  0  0  0
  -12.4700  -49.2470    6.9370 N   0  0  0  0  0  0  0  0  0  0  0  0
  -13.1220  -49.5850    8.1950 C   0  0  2  0  0  0  0  0  0  0  0  0
  -13.3840  -48.2960    8.9630 C   0  0  0  0  0  0  0  0  0  0  0  0
  -12.5350  -47.4020    8.9880 O   0  0  0  0  0  0  0  0  0  0  0  0
  -12.2630  -50.5460    9.0250 C   0  0  0  0  0  0  0  0  0  0  0  0
  -13.0480  -51.3970    9.9990 C   0  0  0  0  0  0  0  0  0  0  0  0
  -12.1250  -52.2840   10.8220 C   0  0  0  0  0  0  0  0  0  0  0  0
  -12.8900  -53.2530   11.6010 N   0  0  0  0  0  0  0  0  0  0  0  0
  -13.4100  -52.9980   12.7970 C   0  0  0  0  0  0  0  0  0  0  0  0
  -13.2410  -51.8060   13.3550 N   0  0  0  0  0  0  0  0  0  0  0  0
  -14.1030  -53.9320   13.4370 N   0  0  0  0  0  0  0  0  0  0  0  0
  -14.5540  -48.2100    9.5970 N   0  0  0  0  0  0  0  0  0  0  0  0
  -14.9480  -46.9580   10.2400 C   0  0  2  0  0  0  0  0  0  0  0  0
  -14.0780  -46.6390   11.4560 C   0  0  0  0  0  0  0  0  0  0  0  0
  -13.7760  -45.4680   11.7120 O   0  0  0  0  0  0  0  0  0  0  0  0
  -16.4200  -47.0080   10.6410 C   0  0  0  0  0  0  0  0  0  0  0  0
  -17.3920  -47.0540    9.4760 C   0  0  0  0  0  0  0  0  0  0  0  0
  -17.4920  -45.7090    8.7470 C   0  0  0  0  0  0  0  0  0  0  0  0
  -18.8330  -45.5620    8.0120 C   0  0  0  0  0  0  0  0  0  0  0  0
  -19.0900  -46.6830    7.0570 N   0  0  0  0  0  0  0  0  0  0  0  0
  -18.5220  -50.9260    1.9860 N   0  0  0  0  0  0  0  0  0  0  0  0
  -18.1740  -49.8250    2.8750 C   0  0  2  0  0  0  0  0  0  0  0  0
  -18.7770  -48.5160    2.3780 C   0  0  0  0  0  0  0  0  0  0  0  0
  -18.5620  -48.1200    1.2250 O   0  0  0  0  0  0  0  0  0  0  0  0
  -16.6570  -49.7080    2.9810 C   0  0  0  0  0  0  0  0  0  0  0  0
  -16.1840  -48.6350    3.9240 C   0  0  0  0  0  0  0  0  0  0  0  0
  -16.0870  -48.8740    5.2880 C   0  0  0  0  0  0  0  0  0  0  0  0
  -15.8200  -47.3880    3.4490 C   0  0  0  0  0  0  0  0  0  0  0  0
  -15.6470  -47.8920    6.1480 C   0  0  0  0  0  0  0  0  0  0  0  0
  -15.3820  -46.4010    4.3030 C   0  0  0  0  0  0  0  0  0  0  0  0
  -15.2950  -46.6560    5.6490 C   0  0  0  0  0  0  0  0  0  0  0  0
  -14.8510  -45.6620    6.4890 O   0  0  0  0  0  0  0  0  0  0  0  0
  -19.5280  -47.8470    3.2560 N   0  0  0  0  0  0  0  0  0  0  0  0
  -20.2560  -46.6280    2.9100 C   0  0  2  0  0  0  0  0  0  0  0  0
  -19.3720  -45.4220    3.1890 C   0  0  0  0  0  0  0  0  0  0  0  0
  -19.2930  -44.9450    4.3240 O   0  0  0  0  0  0  0  0  0  0  0  0
  -21.5570  -46.5400    3.6960 C   0  0  0  0  0  0  0  0  0  0  0  0
  -22.3360  -45.2670    3.4210 C   0  0  0  0  0  0  0  0  0  0  0  0
  -23.7070  -45.2700    4.0590 C   0  0  0  0  0  0  0  0  0  0  0  0
  -24.2660  -46.3270    4.3620 O   0  0  0  0  0  0  0  0  0  0  0  0
  -24.2620  -44.0810    4.2650 N   0  0  0  0  0  0  0  0  0  0  0  0
  -18.7190  -44.9130    2.1420 N   0  0  0  0  0  0  0  0  0  0  0  0
  -17.8430  -43.7580    2.2720 C   0  0  2  0  0  0  0  0  0  0  0  0
  -18.5840  -42.4270    2.1980 C   0  0  0  0  0  0  0  0  0  0  0  0
  -17.9820  -41.3890    2.4990 O   0  0  0  0  0  0  0  0  0  0  0  0
  -16.7630  -43.7900    1.1900 C   0  0  0  0  0  0  0  0  0  0  0  0
  -19.8620  -42.4280    1.8160 N   0  0  0  0  0  0  0  0  0  0  0  0
  -20.6100  -41.1970    1.6550 C   0  0  0  0  0  0  0  0  0  0  0  0
  -21.9100  -41.1430    2.4310 C   0  0  0  0  0  0  0  0  0  0  0  0
  -22.1120  -41.8970    3.3900 O   0  0  0  0  0  0  0  0  0  0  0  0
  -22.8030  -40.2410    2.0190 N   0  0  0  0  0  0  0  0  0  0  0  0
  -24.0450  -40.0230    2.7500 C   0  0  2  0  0  0  0  0  0  0  0  0
  -25.1030  -41.0550    2.3890 C   0  0  0  0  0  0  0  0  0  0  0  0
  -25.8310  -41.5290    3.2650 O   0  0  0  0  0  0  0  0  0  0  0  0
  -24.5770  -38.6160    2.4720 C   0  0  0  0  0  0  0  0  0  0  0  0
  -23.5430  -37.6530    2.5470 O   0  0  0  0  0  0  0  0  0  0  0  0
  -25.2120  -41.4060    1.1140 N   0  0  0  0  0  0  0  0  0  0  0  0
  -26.2980  -42.3300    0.8080 C   0  0  2  0  0  0  0  0  0  0  0  0
  -25.8170  -43.7740    0.9330 C   0  0  0  0  0  0  0  0  0  0  0  0
  -24.6770  -44.0780    0.5730 O   0  0  0  0  0  0  0  0  0  0  0  0
  -26.8330  -42.0830   -0.5970 C   0  0  2  0  0  0  0  0  0  0  0  0
  -25.7390  -42.0610   -1.5190 O   0  0  0  0  0  0  0  0  0  0  0  0
  -27.5840  -40.7470   -0.6530 C   0  0  0  0  0  0  0  0  0  0  0  0
  -19.5770  -45.8140   -6.5910 N   0  0  0  0  0  0  0  0  0  0  0  0
  -18.9760  -44.6160   -6.0240 C   0  0  2  0  0  0  0  0  0  0  0  0
  -19.4350  -44.4460   -4.5810 C   0  0  0  0  0  0  0  0  0  0  0  0
  -20.6130  -44.6370   -4.2650 O   0  0  0  0  0  0  0  0  0  0  0  0
  -19.3490  -43.3840   -6.8530 C   0  0  0  0  0  0  0  0  0  0  0  0
  -18.6340  -42.1280   -6.4260 C   0  0  0  0  0  0  0  0  0  0  0  0
  -17.2950  -41.9340   -6.7430 C   0  0  0  0  0  0  0  0  0  0  0  0
  -19.2940  -41.1480   -5.7010 C   0  0  0  0  0  0  0  0  0  0  0  0
  -16.6280  -40.7790   -6.3500 C   0  0  0  0  0  0  0  0  0  0  0  0
  -18.6330  -39.9900   -5.3030 C   0  0  0  0  0  0  0  0  0  0  0  0
  -17.3000  -39.8070   -5.6280 C   0  0  0  0  0  0  0  0  0  0  0  0
  -18.4900  -44.1090   -3.7000 N   0  0  0  0  0  0  0  0  0  0  0  0
  -18.7240  -43.9900   -2.2600 C   0  0  2  0  0  0  0  0  0  0  0  0
  -19.2810  -45.2700   -1.6490 C   0  0  0  0  0  0  0  0  0  0  0  0
  -19.9240  -45.2230   -0.5950 O   0  0  0  0  0  0  0  0  0  0  0  0
  -19.6550  -42.8180   -1.9320 C   0  0  0  0  0  0  0  0  0  0  0  0
  -18.9340  -41.4940   -1.9180 C   0  0  0  0  0  0  0  0  0  0  0  0
  -17.7270  -41.4380   -1.6850 O   0  0  0  0  0  0  0  0  0  0  0  0
  -19.6640  -40.4200   -2.1660 N   0  0  0  0  0  0  0  0  0  0  0  0
  -17.7210  -49.1330   -1.3290 N   0  0  0  0  0  0  0  0  0  0  0  0
  -16.4720  -49.8000   -1.6580 C   0  0  2  0  0  0  0  0  0  0  0  0
  -16.3930  -51.1530   -0.9720 C   0  0  0  0  0  0  0  0  0  0  0  0
  -16.6690  -51.2700    0.2280 O   0  0  0  0  0  0  0  0  0  0  0  0
  -15.2790  -48.9240   -1.2570 C   0  0  0  0  0  0  0  0  0  0  0  0
  -15.3100  -47.5690   -1.9250 C   0  0  0  0  0  0  0  0  0  0  0  0
  -15.6580  -47.4440   -3.2620 C   0  0  0  0  0  0  0  0  0  0  0  0
  -15.0220  -46.4110   -1.2150 C   0  0  0  0  0  0  0  0  0  0  0  0
  -15.6990  -46.2080   -3.8810 C   0  0  0  0  0  0  0  0  0  0  0  0
  -15.0620  -45.1680   -1.8270 C   0  0  0  0  0  0  0  0  0  0  0  0
  -15.4010  -45.0750   -3.1600 C   0  0  0  0  0  0  0  0  0  0  0  0
  -15.4460  -43.8450   -3.7730 O   0  0  0  0  0  0  0  0  0  0  0  0
  2  1  1  1
  3  2  1  0
  4  3  2  0
  5  2  1  0
  6  5  1  0
  7  6  1  0
  8  7  1  0
  9  8  1  0
 11 10  1  6
 12 11  1  0
 13 12  2  0
 14 11  1  0
 15 14  1  0
 16 15  2  0
 17 15  1  0
 18 16  1  0
 19 17  2  0
 20 19  1  0
 20 18  2  0
 21 20  1  0
 23 22  1  1
 24 23  1  0
 25 24  2  0
 26 23  1  0
 27 26  1  0
 28 27  1  0
 29 28  1  0
 30 29  1  0
 31 30  1  0
 32 30  2  0
 33 24  1  0
 34 33  1  0
 35 34  1  0
 36 35  2  0
 34 37  1  6
 38 37  1  0
 39 38  1  0
 40 38  1  0
 41 35  1  0
 42 41  1  0
 43 42  1  0
 44 43  2  0
 42 45  1  6
 46 45  1  0
 47 46  2  0
 48 46  1  0
 49 47  1  0
 50 48  2  0
 51 50  1  0
 51 49  2  0
 52 43  1  0
 53 52  1  0
 54 53  1  0
 55 54  2  0
 53 56  1  1
 57 56  1  0
 58 57  1  0
 59 58  1  0
 60 59  1  0
 61 60  1  0
 62 60  2  0
 63 54  1  0
 64 63  1  0
 65 64  1  0
 66 65  2  0
 64 67  1  1
 68 67  1  0
 69 68  1  0
 70 69  1  0
 71 70  1  0
 73 72  1  6
 74 73  1  0
 75 74  2  0
 76 73  1  0
 77 76  1  0
 78 77  2  0
 79 77  1  0
 80 78  1  0
 81 79  2  0
 82 81  1  0
 82 80  2  0
 83 82  1  0
 84 74  1  0
 85 84  1  0
 86 85  1  0
 87 86  2  0
 85 88  1  1
 89 88  1  0
 90 89  1  0
 91 90  2  0
 92 90  1  0
 93 86  1  0
 94 93  1  0
 95 94  1  0
 96 95  2  0
 94 97  1  6
 98 95  1  0
 99 98  1  0
100 99  1  0
101100  2  0
102100  1  0
103102  1  0
104103  1  0
105104  2  0
103106  1  6
107106  1  0
108104  1  0
109108  1  6
110109  1  0
111110  2  0
112109  1  0
113112  1  0
112114  1  1
116115  1  6
117116  1  0
118117  2  0
119116  1  0
120119  1  0
121120  2  0
122120  1  0
123121  1  0
124122  2  0
125123  2  0
125124  1  0
126117  1  0
127126  1  0
128127  1  0
129128  2  0
127130  1  6
131130  1  0
132131  2  0
133131  1  0
135134  1  1
136135  1  0
137136  2  0
138135  1  0
139138  1  0
140139  2  0
141139  1  0
142140  1  0
143141  2  0
144143  1  0
144142  2  0
145144  1  0
M  END
$$$$
