
     RDKit          3D

145144  0  0  0  0  0  0  0  0999 V2000
   23.9830   66.7110    9.2580 N   0  0  0  0  0  0  0  0  0  0  0  0
   22.5430   66.5670    9.0620 C   0  0  2  0  0  0  0  0  0  0  0  0
   22.0240   65.2580    9.6470 C   0  0  0  0  0  0  0  0  0  0  0  0
   20.9320   65.2230   10.2260 O   0  0  0  0  0  0  0  0  0  0  0  0
   22.2050   66.6710    7.5740 C   0  0  0  0  0  0  0  0  0  0  0  0
   22.3950   68.0690    7.0080 C   0  0  0  0  0  0  0  0  0  0  0  0
   22.2230   68.1150    5.4960 C   0  0  0  0  0  0  0  0  0  0  0  0
   22.9420   69.3280    4.9120 C   0  0  0  0  0  0  0  0  0  0  0  0
   22.7650   69.4410    3.4390 N   0  0  0  0  0  0  0  0  0  0  0  0
   19.8590   65.5290   13.0920 N   0  0  0  0  0  0  0  0  0  0  0  0
   18.4330   65.5110   12.7970 C   0  0  2  0  0  0  0  0  0  0  0  0
   17.8680   64.1300   12.4890 C   0  0  0  0  0  0  0  0  0  0  0  0
   16.6600   64.0190   12.2500 O   0  0  0  0  0  0  0  0  0  0  0  0
   18.1410   66.4610   11.6260 C   0  0  0  0  0  0  0  0  0  0  0  0
   18.7720   67.8260   11.7980 C   0  0  0  0  0  0  0  0  0  0  0  0
   18.6990   68.4970   13.0150 C   0  0  0  0  0  0  0  0  0  0  0  0
   19.4530   68.4390   10.7540 C   0  0  0  0  0  0  0  0  0  0  0  0
   19.2800   69.7390   13.1870 C   0  0  0  0  0  0  0  0  0  0  0  0
   20.0370   69.6850   10.9160 C   0  0  0  0  0  0  0  0  0  0  0  0
   19.9470   70.3300   12.1360 C   0  0  0  0  0  0  0  0  0  0  0  0
   20.5250   71.5700   12.3030 O   0  0  0  0  0  0  0  0  0  0  0  0
   15.9220   63.5240    7.2660 N   0  0  0  0  0  0  0  0  0  0  0  0
   15.3920   64.7930    7.7450 C   0  0  2  0  0  0  0  0  0  0  0  0
   16.3920   65.9030    7.4550 C   0  0  0  0  0  0  0  0  0  0  0  0
   17.5650   65.8100    7.8310 O   0  0  0  0  0  0  0  0  0  0  0  0
   15.0710   64.7400    9.2360 C   0  0  0  0  0  0  0  0  0  0  0  0
   14.3910   66.0120    9.7380 C   0  0  0  0  0  0  0  0  0  0  0  0
   13.7800   65.8280   11.1190 C   0  0  0  0  0  0  0  0  0  0  0  0
   12.7880   64.7580   11.1400 N   0  0  0  0  0  0  0  0  0  0  0  0
   11.5050   64.9220   10.8400 C   0  0  0  0  0  0  0  0  0  0  0  0
   11.0510   66.1180   10.4870 N   0  0  0  0  0  0  0  0  0  0  0  0
   10.6760   63.8890   10.8870 N   0  0  0  0  0  0  0  0  0  0  0  0
   15.9270   66.9400    6.7630 N   0  0  0  0  0  0  0  0  0  0  0  0
   16.7570   68.0840    6.4190 C   0  0  2  0  0  0  0  0  0  0  0  0
   16.5550   69.2680    7.3540 C   0  0  0  0  0  0  0  0  0  0  0  0
   17.5150   69.9940    7.6320 O   0  0  0  0  0  0  0  0  0  0  0  0
   16.4710   68.5240    4.9770 C   0  0  0  0  0  0  0  0  0  0  0  0
   17.3070   69.6710    4.4100 C   0  0  0  0  0  0  0  0  0  0  0  0
   18.7870   69.3910    4.6060 C   0  0  0  0  0  0  0  0  0  0  0  0
   16.9970   69.8660    2.9410 C   0  0  0  0  0  0  0  0  0  0  0  0
   15.3380   69.4630    7.8610 N   0  0  0  0  0  0  0  0  0  0  0  0
   14.9780   70.6530    8.6240 C   0  0  2  0  0  0  0  0  0  0  0  0
   14.4490   70.2460    9.9890 C   0  0  0  0  0  0  0  0  0  0  0  0
   13.4800   69.4840   10.0820 O   0  0  0  0  0  0  0  0  0  0  0  0
   13.9330   71.4900    7.8770 C   0  0  0  0  0  0  0  0  0  0  0  0
   14.4830   72.2280    6.6900 C   0  0  0  0  0  0  0  0  0  0  0  0
   15.2570   73.3640    6.8690 C   0  0  0  0  0  0  0  0  0  0  0  0
   14.2290   71.7920    5.4010 C   0  0  0  0  0  0  0  0  0  0  0  0
   15.7710   74.0490    5.7850 C   0  0  0  0  0  0  0  0  0  0  0  0
   14.7400   72.4770    4.3090 C   0  0  0  0  0  0  0  0  0  0  0  0
   15.5120   73.6070    4.5040 C   0  0  0  0  0  0  0  0  0  0  0  0
   15.0820   70.7640   11.0380 N   0  0  0  0  0  0  0  0  0  0  0  0
   14.6210   70.5760   12.4030 C   0  0  2  0  0  0  0  0  0  0  0  0
   15.1190   71.7530   13.2290 C   0  0  0  0  0  0  0  0  0  0  0  0
   16.2450   72.2160   13.0370 O   0  0  0  0  0  0  0  0  0  0  0  0
   15.1160   69.2450   12.9820 C   0  0  0  0  0  0  0  0  0  0  0  0
   14.2870   68.7360   14.1430 C   0  0  0  0  0  0  0  0  0  0  0  0
   14.7560   67.3610   14.6020 C   0  0  0  0  0  0  0  0  0  0  0  0
   13.7920   66.7330   15.5020 N   0  0  0  0  0  0  0  0  0  0  0  0
   13.8050   66.8610   16.8250 C   0  0  0  0  0  0  0  0  0  0  0  0
   14.7430   67.5910   17.4130 N   0  0  0  0  0  0  0  0  0  0  0  0
   12.8830   66.2550   17.5630 N   0  0  0  0  0  0  0  0  0  0  0  0
   14.2690   72.2450   14.1300 N   0  0  0  0  0  0  0  0  0  0  0  0
   14.6180   73.4520   14.8730 C   0  0  2  0  0  0  0  0  0  0  0  0
   15.7720   73.2150   15.8400 C   0  0  0  0  0  0  0  0  0  0  0  0
   16.5860   74.1180   16.0610 O   0  0  0  0  0  0  0  0  0  0  0  0
   13.3970   73.9780   15.6260 C   0  0  0  0  0  0  0  0  0  0  0  0
   12.4000   74.7200   14.7530 C   0  0  0  0  0  0  0  0  0  0  0  0
   13.0600   75.8760   14.0150 C   0  0  0  0  0  0  0  0  0  0  0  0
   12.0330   76.9090   13.5710 C   0  0  0  0  0  0  0  0  0  0  0  0
   10.9510   76.3150   12.7390 N   0  0  0  0  0  0  0  0  0  0  0  0
    7.9020   72.7580    7.7380 N   0  0  0  0  0  0  0  0  0  0  0  0
    8.8670   73.5030    8.5370 C   0  0  2  0  0  0  0  0  0  0  0  0
    8.8080   74.9780    8.1540 C   0  0  0  0  0  0  0  0  0  0  0  0
    8.9510   75.3250    6.9770 O   0  0  0  0  0  0  0  0  0  0  0  0
   10.2620   72.9210    8.3110 C   0  0  0  0  0  0  0  0  0  0  0  0
   11.3950   73.5770    9.0610 C   0  0  0  0  0  0  0  0  0  0  0  0
   11.7530   73.1490   10.3370 C   0  0  0  0  0  0  0  0  0  0  0  0
   12.1390   74.5970    8.4750 C   0  0  0  0  0  0  0  0  0  0  0  0
   12.8100   73.7350   11.0190 C   0  0  0  0  0  0  0  0  0  0  0  0
   13.1940   75.1890    9.1450 C   0  0  0  0  0  0  0  0  0  0  0  0
   13.5270   74.7550   10.4150 C   0  0  0  0  0  0  0  0  0  0  0  0
   14.5790   75.3450   11.0820 O   0  0  0  0  0  0  0  0  0  0  0  0
    8.5850   75.8390    9.1440 N   0  0  0  0  0  0  0  0  0  0  0  0
    8.4670   77.2770    8.9180 C   0  0  2  0  0  0  0  0  0  0  0  0
    9.8480   77.9110    9.0210 C   0  0  0  0  0  0  0  0  0  0  0  0
   10.4090   78.0220   10.1170 O   0  0  0  0  0  0  0  0  0  0  0  0
    7.5000   77.9050    9.9170 C   0  0  0  0  0  0  0  0  0  0  0  0
    7.4950   79.4240    9.8950 C   0  0  0  0  0  0  0  0  0  0  0  0
    6.6210   80.0190   10.9800 C   0  0  0  0  0  0  0  0  0  0  0  0
    5.8430   79.3130   11.6220 O   0  0  0  0  0  0  0  0  0  0  0  0
    6.7460   81.3240   11.1930 N   0  0  0  0  0  0  0  0  0  0  0  0
   10.3890   78.3380    7.8810 N   0  0  0  0  0  0  0  0  0  0  0  0
   11.7220   78.9200    7.8190 C   0  0  2  0  0  0  0  0  0  0  0  0
   11.7130   80.4440    7.8560 C   0  0  0  0  0  0  0  0  0  0  0  0
   12.7880   81.0530    7.8810 O   0  0  0  0  0  0  0  0  0  0  0  0
   12.4460   78.4370    6.5600 C   0  0  0  0  0  0  0  0  0  0  0  0
   10.5400   81.0710    7.8700 N   0  0  0  0  0  0  0  0  0  0  0  0
   10.4550   82.5180    7.8780 C   0  0  0  0  0  0  0  0  0  0  0  0
    9.5510   83.0600    8.9640 C   0  0  0  0  0  0  0  0  0  0  0  0
    9.1340   82.3230    9.8620 O   0  0  0  0  0  0  0  0  0  0  0  0
    9.2330   84.3530    8.8840 N   0  0  0  0  0  0  0  0  0  0  0  0
    8.4390   84.9870    9.9310 C   0  0  2  0  0  0  0  0  0  0  0  0
    6.9730   84.5810    9.8610 C   0  0  0  0  0  0  0  0  0  0  0  0
    6.3010   84.5230   10.8970 O   0  0  0  0  0  0  0  0  0  0  0  0
    8.5660   86.5060    9.8330 C   0  0  0  0  0  0  0  0  0  0  0  0
    9.9250   86.9000    9.7550 O   0  0  0  0  0  0  0  0  0  0  0  0
    6.4630   84.2920    8.6670 N   0  0  0  0  0  0  0  0  0  0  0  0
    5.0390   83.9980    8.5410 C   0  0  2  0  0  0  0  0  0  0  0  0
    4.7860   82.4920    8.6270 C   0  0  0  0  0  0  0  0  0  0  0  0
    5.5770   81.6990    8.1080 O   0  0  0  0  0  0  0  0  0  0  0  0
    4.4940   84.5380    7.2200 C   0  0  2  0  0  0  0  0  0  0  0  0
    5.3110   84.0690    6.1410 O   0  0  0  0  0  0  0  0  0  0  0  0
    4.5130   86.0580    7.2210 C   0  0  0  0  0  0  0  0  0  0  0  0
    7.3670   79.1380   -0.4390 N   0  0  0  0  0  0  0  0  0  0  0  0
    8.5790   79.8480   -0.0640 C   0  0  2  0  0  0  0  0  0  0  0  0
    8.6560   79.9730    1.4520 C   0  0  0  0  0  0  0  0  0  0  0  0
    7.6660   80.2940    2.1160 O   0  0  0  0  0  0  0  0  0  0  0  0
    8.6220   81.2300   -0.7130 C   0  0  0  0  0  0  0  0  0  0  0  0
    9.8580   82.0160   -0.3770 C   0  0  0  0  0  0  0  0  0  0  0  0
   11.0410   81.8070   -1.0720 C   0  0  0  0  0  0  0  0  0  0  0  0
    9.8420   82.9590    0.6400 C   0  0  0  0  0  0  0  0  0  0  0  0
   12.1850   82.5270   -0.7630 C   0  0  0  0  0  0  0  0  0  0  0  0
   10.9790   83.6810    0.9550 C   0  0  0  0  0  0  0  0  0  0  0  0
   12.1540   83.4660    0.2510 C   0  0  0  0  0  0  0  0  0  0  0  0
    9.8420   79.7030    1.9990 N   0  0  0  0  0  0  0  0  0  0  0  0
   10.1000   79.6410    3.4380 C   0  0  2  0  0  0  0  0  0  0  0  0
    9.2260   78.6160    4.1530 C   0  0  0  0  0  0  0  0  0  0  0  0
    9.1260   78.6450    5.3860 O   0  0  0  0  0  0  0  0  0  0  0  0
    9.9360   81.0150    4.1010 C   0  0  0  0  0  0  0  0  0  0  0  0
   11.1550   81.9010    3.9270 C   0  0  0  0  0  0  0  0  0  0  0  0
   12.0770   81.5790    3.1750 O   0  0  0  0  0  0  0  0  0  0  0  0
   11.1650   83.0270    4.6270 N   0  0  0  0  0  0  0  0  0  0  0  0
    8.9140   74.5580    3.9770 N   0  0  0  0  0  0  0  0  0  0  0  0
    9.5880   73.4300    3.3560 C   0  0  2  0  0  0  0  0  0  0  0  0
    9.1490   72.1170    3.9870 C   0  0  0  0  0  0  0  0  0  0  0  0
    8.9520   72.0310    5.2040 O   0  0  0  0  0  0  0  0  0  0  0  0
   11.1070   73.5890    3.4790 C   0  0  0  0  0  0  0  0  0  0  0  0
   11.5970   74.9390    2.9970 C   0  0  0  0  0  0  0  0  0  0  0  0
   11.1100   75.4940    1.8160 C   0  0  0  0  0  0  0  0  0  0  0  0
   12.5290   75.6670    3.7290 C   0  0  0  0  0  0  0  0  0  0  0  0
   11.5460   76.7280    1.3710 C   0  0  0  0  0  0  0  0  0  0  0  0
   12.9710   76.9050    3.2920 C   0  0  0  0  0  0  0  0  0  0  0  0
   12.4750   77.4290    2.1130 C   0  0  0  0  0  0  0  0  0  0  0  0
   12.9090   78.6580    1.6730 O   0  0  0  0  0  0  0  0  0  0  0  0
  2  1  1  6
  3  2  1  0
  4  3  2  0
  5  2  1  0
  6  5  1  0
  7  6  1  0
  8  7  1  0
  9  8  1  0
 11 10  1  6
 12 11  1  0
 13 12  2  0
 14 11  1  0
 15 14  1  0
 16 15  2  0
 17 15  1  0
 18 16  1  0
 19 17  2  0
 20 19  1  0
 20 18  2  0
 21 20  1  0
 23 22  1  1
 24 23  1  0
 25 24  2  0
 26 23  1  0
 27 26  1  0
 28 27  1  0
 29 28  1  0
 30 29  1  0
 31 30  1  0
 32 30  2  0
 33 24  1  0
 34 33  1  0
 35 34  1  0
 36 35  2  0
 34 37  1  6
 38 37  1  0
 39 38  1  0
 40 38  1  0
 41 35  1  0
 42 41  1  0
 43 42  1  0
 44 43  2  0
 42 45  1  6
 46 45  1  0
 47 46  2  0
 48 46  1  0
 49 47  1  0
 50 48  2  0
 51 50  1  0
 51 49  2  0
 52 43  1  0
 53 52  1  0
 54 53  1  0
 55 54  2  0
 53 56  1  1
 57 56  1  0
 58 57  1  0
 59 58  1  0
 60 59  1  0
 61 60  1  0
 62 60  2  0
 63 54  1  0
 64 63  1  0
 65 64  1  0
 66 65  2  0
 64 67  1  1
 68 67  1  0
 69 68  1  0
 70 69  1  0
 71 70  1  0
 73 72  1  6
 74 73  1  0
 75 74  2  0
 76 73  1  0
 77 76  1  0
 78 77  2  0
 79 77  1  0
 80 78  1  0
 81 79  2  0
 82 81  1  0
 82 80  2  0
 83 82  1  0
 84 74  1  0
 85 84  1  0
 86 85  1  0
 87 86  2  0
 85 88  1  1
 89 88  1  0
 90 89  1  0
 91 90  2  0
 92 90  1  0
 93 86  1  0
 94 93  1  0
 95 94  1  0
 96 95  2  0
 94 97  1  6
 98 95  1  0
 99 98  1  0
100 99  1  0
101100  2  0
102100  1  0
103102  1  0
104103  1  0
105104  2  0
103106  1  6
107106  1  0
108104  1  0
109108  1  6
110109  1  0
111110  2  0
112109  1  0
113112  1  0
112114  1  1
116115  1  1
117116  1  0
118117  2  0
119116  1  0
120119  1  0
121120  2  0
122120  1  0
123121  1  0
124122  2  0
125124  1  0
125123  2  0
126117  1  0
127126  1  0
128127  1  0
129128  2  0
127130  1  1
131130  1  0
132131  2  0
133131  1  0
135134  1  1
136135  1  0
137136  2  0
138135  1  0
139138  1  0
140139  2  0
141139  1  0
142140  1  0
143141  2  0
144143  1  0
144142  2  0
145144  1  0
M  END
$$$$
