
     RDKit          3D

 95 95  0  0  0  0  0  0  0  0999 V2000
   24.0250   57.7360    2.9960 N   0  0  0  0  0  0  0  0  0  0  0  0
   25.1420   57.8880    2.0700 C   0  0  2  0  0  0  0  0  0  0  0  0
   26.4200   57.3290    2.6820 C   0  0  0  0  0  0  0  0  0  0  0  0
   26.5970   57.3290    3.9030 O   0  0  0  0  0  0  0  0  0  0  0  0
   25.3800   59.3600    1.7340 C   0  0  0  0  0  0  0  0  0  0  0  0
   24.4100   60.0060    0.7720 C   0  0  0  0  0  0  0  0  0  0  0  0
   24.8100   61.4680    0.5710 C   0  0  0  0  0  0  0  0  0  0  0  0
   23.8800   62.2140   -0.2770 N   0  0  0  0  0  0  0  0  0  0  0  0
   23.0570   63.1660    0.1590 C   0  0  0  0  0  0  0  0  0  0  0  0
   23.0430   63.5010    1.4420 N   0  0  0  0  0  0  0  0  0  0  0  0
   22.2500   63.7920   -0.6900 N   0  0  0  0  0  0  0  0  0  0  0  0
   14.7580   63.4930   -0.2390 N   0  0  0  0  0  0  0  0  0  0  0  0
   15.0200   62.1690   -0.7800 C   0  0  2  0  0  0  0  0  0  0  0  0
   16.4780   62.0300   -1.1980 C   0  0  0  0  0  0  0  0  0  0  0  0
   17.0960   62.9820   -1.6830 O   0  0  0  0  0  0  0  0  0  0  0  0
   14.0990   61.8910   -1.9670 C   0  0  0  0  0  0  0  0  0  0  0  0
   14.0870   60.5130   -2.2790 O   0  0  0  0  0  0  0  0  0  0  0  0
   17.0270   60.8300   -1.0010 N   0  0  0  0  0  0  0  0  0  0  0  0
   18.4190   60.5890   -1.3640 C   0  0  2  0  0  0  0  0  0  0  0  0
   18.5940   60.5300   -2.8750 C   0  0  0  0  0  0  0  0  0  0  0  0
   19.4660   61.2040   -3.4360 O   0  0  0  0  0  0  0  0  0  0  0  0
   18.9180   59.2990   -0.7220 C   0  0  0  0  0  0  0  0  0  0  0  0
   19.4810   59.4810    0.6650 C   0  0  0  0  0  0  0  0  0  0  0  0
   20.6760   60.1620    0.8660 C   0  0  0  0  0  0  0  0  0  0  0  0
   18.8280   58.9610    1.7730 C   0  0  0  0  0  0  0  0  0  0  0  0
   21.2000   60.3310    2.1340 C   0  0  0  0  0  0  0  0  0  0  0  0
   19.3450   59.1220    3.0430 C   0  0  0  0  0  0  0  0  0  0  0  0
   20.5310   59.8060    3.2180 C   0  0  0  0  0  0  0  0  0  0  0  0
   21.0460   59.9670    4.4820 O   0  0  0  0  0  0  0  0  0  0  0  0
   17.7780   59.7300   -3.5510 N   0  0  0  0  0  0  0  0  0  0  0  0
   17.9620   59.5270   -4.9730 C   0  0  0  0  0  0  0  0  0  0  0  0
   19.2410   58.7750   -5.2760 C   0  0  0  0  0  0  0  0  0  0  0  0
   20.2340   59.3690   -5.7060 O   0  0  0  0  0  0  0  0  0  0  0  0
   19.2340   57.4670   -5.0470 N   0  0  0  0  0  0  0  0  0  0  0  0
   20.4100   56.6360   -5.2690 C   0  0  2  0  0  0  0  0  0  0  0  0
   20.3950   56.1250   -6.7040 C   0  0  0  0  0  0  0  0  0  0  0  0
   19.5500   55.3040   -7.0720 O   0  0  0  0  0  0  0  0  0  0  0  0
   20.4500   55.4770   -4.2790 C   0  0  0  0  0  0  0  0  0  0  0  0
   20.6800   55.9000   -2.8590 C   0  0  0  0  0  0  0  0  0  0  0  0
   21.8600   56.5280   -2.4920 C   0  0  0  0  0  0  0  0  0  0  0  0
   19.7220   55.6590   -1.8910 C   0  0  0  0  0  0  0  0  0  0  0  0
   22.0790   56.9130   -1.1870 C   0  0  0  0  0  0  0  0  0  0  0  0
   19.9350   56.0410   -0.5830 C   0  0  0  0  0  0  0  0  0  0  0  0
   21.1170   56.6700   -0.2300 C   0  0  0  0  0  0  0  0  0  0  0  0
   21.3240   56.6200   -7.5120 N   0  0  0  0  0  0  0  0  0  0  0  0
   21.5950   56.0900   -8.8370 C   0  0  2  0  0  0  0  0  0  0  0  0
   22.8560   55.2410   -8.8030 C   0  0  0  0  0  0  0  0  0  0  0  0
   23.8040   55.5690   -8.0810 O   0  0  0  0  0  0  0  0  0  0  0  0
   21.7690   57.2200   -9.8510 C   0  0  0  0  0  0  0  0  0  0  0  0
   20.4890   57.9610  -10.1720 C   0  0  0  0  0  0  0  0  0  0  0  0
   20.7520   59.3580  -10.6910 C   0  0  0  0  0  0  0  0  0  0  0  0
   21.1420   60.2450   -9.9340 O   0  0  0  0  0  0  0  0  0  0  0  0
   20.5520   59.5610  -11.9900 N   0  0  0  0  0  0  0  0  0  0  0  0
   25.3800   54.9390  -10.6640 N   0  0  0  0  0  0  0  0  0  0  0  0
   26.6270   55.5310  -11.1350 C   0  0  2  0  0  0  0  0  0  0  0  0
   27.1360   56.6640  -10.2490 C   0  0  0  0  0  0  0  0  0  0  0  0
   28.1200   57.3180  -10.6140 O   0  0  0  0  0  0  0  0  0  0  0  0
   26.4790   56.0340  -12.5740 C   0  0  2  0  0  0  0  0  0  0  0  0
   25.4120   56.9900  -12.6510 O   0  0  0  0  0  0  0  0  0  0  0  0
   26.1960   54.8690  -13.5120 C   0  0  0  0  0  0  0  0  0  0  0  0
   26.5040   56.9110   -9.1000 N   0  0  0  0  0  0  0  0  0  0  0  0
   27.0590   57.8570   -8.1380 C   0  0  2  0  0  0  0  0  0  0  0  0
   28.4720   57.4500   -7.7340 C   0  0  0  0  0  0  0  0  0  0  0  0
   28.8500   56.2750   -7.7980 O   0  0  0  0  0  0  0  0  0  0  0  0
   26.1900   57.9360   -6.8780 C   0  0  0  0  0  0  0  0  0  0  0  0
   24.7930   58.4660   -7.1430 C   0  0  0  0  0  0  0  0  0  0  0  0
   24.5230   59.0720   -8.1790 O   0  0  0  0  0  0  0  0  0  0  0  0
   23.8950   58.2420   -6.1900 N   0  0  0  0  0  0  0  0  0  0  0  0
   29.2580   58.4360   -7.3090 N   0  0  0  0  0  0  0  0  0  0  0  0
   30.4860   58.1360   -6.6030 C   0  0  0  0  0  0  0  0  0  0  0  0
   30.2050   57.4720   -5.2690 C   0  0  0  0  0  0  0  0  0  0  0  0
   29.0860   57.5090   -4.7570 O   0  0  0  0  0  0  0  0  0  0  0  0
   31.2480   56.8550   -4.6970 N   0  0  0  0  0  0  0  0  0  0  0  0
   31.0760   56.0500   -3.4840 C   0  0  2  0  0  0  0  0  0  0  0  0
   30.4220   56.8580   -2.3720 C   0  0  0  0  0  0  0  0  0  0  0  0
   29.5190   56.3700   -1.6820 O   0  0  0  0  0  0  0  0  0  0  0  0
   32.4250   55.4650   -3.0260 C   0  0  0  0  0  0  0  0  0  0  0  0
   32.7670   54.2620   -3.8540 C   0  0  0  0  0  0  0  0  0  0  0  0
   33.5260   56.5110   -3.1160 C   0  0  0  0  0  0  0  0  0  0  0  0
   30.8640   58.1050   -2.1820 N   0  0  0  0  0  0  0  0  0  0  0  0
   30.2980   58.9380   -1.1360 C   0  0  0  0  0  0  0  0  0  0  0  0
   28.8020   59.1300   -1.2520 C   0  0  0  0  0  0  0  0  0  0  0  0
   28.1230   59.3770   -0.2500 O   0  0  0  0  0  0  0  0  0  0  0  0
   28.2700   59.0250   -2.4650 N   0  0  0  0  0  0  0  0  0  0  0  0
   26.8450   59.1870   -2.7180 C   0  0  2  0  0  0  0  0  0  0  0  0
   26.1140   57.8620   -2.8730 C   0  0  0  0  0  0  0  0  0  0  0  0
   24.9060   57.8650   -3.1170 O   0  0  0  0  0  0  0  0  0  0  0  0
   26.6300   60.0430   -3.9710 C   0  0  0  0  0  0  0  0  0  0  0  0
   26.9830   61.5020   -3.8070 C   0  0  0  0  0  0  0  0  0  0  0  0
   28.2240   61.9860   -4.1980 C   0  0  0  0  0  0  0  0  0  0  0  0
   26.0750   62.3960   -3.2630 C   0  0  0  0  0  0  0  0  0  0  0  0
   28.5480   63.3230   -4.0510 C   0  0  0  0  0  0  0  0  0  0  0  0
   26.3920   63.7300   -3.1070 C   0  0  0  0  0  0  0  0  0  0  0  0
   27.6260   64.1910   -3.5050 C   0  0  0  0  0  0  0  0  0  0  0  0
   27.9400   65.5220   -3.3540 O   0  0  0  0  0  0  0  0  0  0  0  0
  2  1  1  1
  3  2  1  0
  4  3  2  0
  5  2  1  0
  6  5  1  0
  7  6  1  0
  8  7  1  0
  9  8  1  0
 10  9  1  0
 11  9  2  0
 13 12  1  6
 14 13  1  0
 15 14  2  0
 16 13  1  0
 17 16  1  0
 18 14  1  0
 19 18  1  0
 20 19  1  0
 21 20  2  0
 19 22  1  1
 23 22  1  0
 24 23  2  0
 25 23  1  0
 26 24  1  0
 27 25  2  0
 28 27  1  0
 28 26  2  0
 29 28  1  0
 30 20  1  0
 31 30  1  0
 32 31  1  0
 33 32  2  0
 34 32  1  0
 35 34  1  0
 36 35  1  0
 37 36  2  0
 35 38  1  1
 39 38  1  0
 40 39  2  0
 41 39  1  0
 42 40  1  0
 43 41  2  0
 44 43  1  0
 44 42  2  0
 45 36  1  0
 46 45  1  0
 47 46  1  0
 48 47  2  0
 46 49  1  6
 50 49  1  0
 51 50  1  0
 52 51  2  0
 53 51  1  0
 55 54  1  1
 56 55  1  0
 57 56  2  0
 58 55  1  0
 59 58  1  0
 58 60  1  6
 61 56  1  0
 62 61  1  0
 63 62  1  0
 64 63  2  0
 62 65  1  1
 66 65  1  0
 67 66  2  0
 68 66  1  0
 69 63  1  0
 70 69  1  0
 71 70  1  0
 72 71  2  0
 73 71  1  0
 74 73  1  6
 75 74  1  0
 76 75  2  0
 77 74  1  0
 78 77  1  0
 79 77  1  0
 80 75  1  0
 81 80  1  0
 82 81  1  0
 83 82  2  0
 84 82  1  0
 85 84  1  0
 86 85  1  0
 87 86  2  0
 85 88  1  6
 89 88  1  0
 90 89  2  0
 91 89  1  0
 92 90  1  0
 93 91  2  0
 94 93  1  0
 94 92  2  0
 95 94  1  0
M  END
$$$$
