
     RDKit          3D

119119  0  0  0  0  0  0  0  0999 V2000
   38.8880   18.4940   -3.7820 N   0  0  0  0  0  0  0  0  0  0  0  0
   37.7340   19.0850   -3.1200 C   0  0  2  0  0  0  0  0  0  0  0  0
   36.5860   19.2710   -4.1040 C   0  0  0  0  0  0  0  0  0  0  0  0
   36.7830   19.3640   -5.3200 O   0  0  0  0  0  0  0  0  0  0  0  0
   38.1000   20.4390   -2.5100 C   0  0  0  0  0  0  0  0  0  0  0  0
   38.8040   20.3650   -1.1740 C   0  0  0  0  0  0  0  0  0  0  0  0
   39.4050   21.7090   -0.7960 C   0  0  0  0  0  0  0  0  0  0  0  0
   38.4860   22.8270   -0.9850 N   0  0  0  0  0  0  0  0  0  0  0  0
   38.6850   24.0430   -0.4930 C   0  0  0  0  0  0  0  0  0  0  0  0
   39.7380   24.3190    0.2590 N   0  0  0  0  0  0  0  0  0  0  0  0
   37.8060   25.0040   -0.7590 N   0  0  0  0  0  0  0  0  0  0  0  0
   44.4040   12.9140    6.1830 N   0  0  0  0  0  0  0  0  0  0  0  0
   45.4960   13.6810    5.6060 C   0  0  2  0  0  0  0  0  0  0  0  0
   46.2740   12.9180    4.5450 C   0  0  0  0  0  0  0  0  0  0  0  0
   47.2790   13.4370    4.0440 O   0  0  0  0  0  0  0  0  0  0  0  0
   46.4570   14.1500    6.7090 C   0  0  0  0  0  0  0  0  0  0  0  0
   45.8470   15.1680    7.6460 C   0  0  0  0  0  0  0  0  0  0  0  0
   45.8510   16.5190    7.3290 C   0  0  0  0  0  0  0  0  0  0  0  0
   45.2630   14.7780    8.8450 C   0  0  0  0  0  0  0  0  0  0  0  0
   45.2930   17.4550    8.1760 C   0  0  0  0  0  0  0  0  0  0  0  0
   44.7020   15.7090    9.7010 C   0  0  0  0  0  0  0  0  0  0  0  0
   44.7200   17.0470    9.3590 C   0  0  0  0  0  0  0  0  0  0  0  0
   44.1660   17.9840   10.2000 O   0  0  0  0  0  0  0  0  0  0  0  0
   47.9280   17.6840   -2.3540 N   0  0  0  0  0  0  0  0  0  0  0  0
   47.9460   18.4290   -3.6030 C   0  0  2  0  0  0  0  0  0  0  0  0
   49.1860   19.3080   -3.6130 C   0  0  0  0  0  0  0  0  0  0  0  0
   49.6840   19.7130   -2.5590 O   0  0  0  0  0  0  0  0  0  0  0  0
   46.6830   19.2840   -3.7890 C   0  0  0  0  0  0  0  0  0  0  0  0
   46.4540   20.3040   -2.6940 C   0  0  0  0  0  0  0  0  0  0  0  0
   45.7640   19.9660   -1.5370 C   0  0  0  0  0  0  0  0  0  0  0  0
   46.9190   21.6070   -2.8220 C   0  0  0  0  0  0  0  0  0  0  0  0
   45.5480   20.8930   -0.5340 C   0  0  0  0  0  0  0  0  0  0  0  0
   46.7090   22.5440   -1.8210 C   0  0  0  0  0  0  0  0  0  0  0  0
   46.0220   22.1810   -0.6810 C   0  0  0  0  0  0  0  0  0  0  0  0
   45.8090   23.1090    0.3180 O   0  0  0  0  0  0  0  0  0  0  0  0
   48.3520   19.0910    2.5170 N   0  0  0  0  0  0  0  0  0  0  0  0
   47.3630   18.0660    2.8030 C   0  0  2  0  0  0  0  0  0  0  0  0
   45.9580   18.6520    2.7850 C   0  0  0  0  0  0  0  0  0  0  0  0
   45.7330   19.7770    3.2390 O   0  0  0  0  0  0  0  0  0  0  0  0
   47.6380   17.4250    4.1610 C   0  0  0  0  0  0  0  0  0  0  0  0
   46.7720   16.3290    4.3780 O   0  0  0  0  0  0  0  0  0  0  0  0
   45.0180   17.8880    2.2370 N   0  0  0  0  0  0  0  0  0  0  0  0
   43.6080   18.1880    2.4310 C   0  0  2  0  0  0  0  0  0  0  0  0
   43.1960   17.8110    3.8490 C   0  0  0  0  0  0  0  0  0  0  0  0
   43.6880   16.8360    4.4240 O   0  0  0  0  0  0  0  0  0  0  0  0
   42.7350   17.4190    1.4350 C   0  0  0  0  0  0  0  0  0  0  0  0
   42.7700   17.9030    0.0010 C   0  0  0  0  0  0  0  0  0  0  0  0
   42.2410   19.1400   -0.3530 C   0  0  0  0  0  0  0  0  0  0  0  0
   43.2950   17.1010   -1.0050 C   0  0  0  0  0  0  0  0  0  0  0  0
   42.2600   19.5750   -1.6710 C   0  0  0  0  0  0  0  0  0  0  0  0
   43.3170   17.5240   -2.3210 C   0  0  0  0  0  0  0  0  0  0  0  0
   42.7980   18.7600   -2.6480 C   0  0  0  0  0  0  0  0  0  0  0  0
   42.8200   19.1800   -3.9570 O   0  0  0  0  0  0  0  0  0  0  0  0
   42.2850   18.5970    4.4150 N   0  0  0  0  0  0  0  0  0  0  0  0
   41.7350   18.2770    5.7170 C   0  0  0  0  0  0  0  0  0  0  0  0
   40.3320   17.7190    5.6160 C   0  0  0  0  0  0  0  0  0  0  0  0
   39.3580   18.4190    5.9070 O   0  0  0  0  0  0  0  0  0  0  0  0
   40.2120   16.4590    5.2030 N   0  0  0  0  0  0  0  0  0  0  0  0
   38.9080   15.8620    4.9230 C   0  0  2  0  0  0  0  0  0  0  0  0
   38.3080   15.3240    6.2150 C   0  0  0  0  0  0  0  0  0  0  0  0
   38.6680   14.2420    6.6860 O   0  0  0  0  0  0  0  0  0  0  0  0
   39.0320   14.7710    3.8670 C   0  0  0  0  0  0  0  0  0  0  0  0
   39.2460   15.3010    2.4800 C   0  0  0  0  0  0  0  0  0  0  0  0
   38.6380   16.4790    2.0760 C   0  0  0  0  0  0  0  0  0  0  0  0
   40.0610   14.6300    1.5830 C   0  0  0  0  0  0  0  0  0  0  0  0
   38.8340   16.9730    0.7980 C   0  0  0  0  0  0  0  0  0  0  0  0
   40.2590   15.1200    0.3070 C   0  0  0  0  0  0  0  0  0  0  0  0
   39.6450   16.2930   -0.0850 C   0  0  0  0  0  0  0  0  0  0  0  0
   37.3930   16.0940    6.7940 N   0  0  0  0  0  0  0  0  0  0  0  0
   36.6140   15.7010    7.9510 C   0  0  2  0  0  0  0  0  0  0  0  0
   35.1380   15.6540    7.5780 C   0  0  0  0  0  0  0  0  0  0  0  0
   34.6900   16.4220    6.7200 O   0  0  0  0  0  0  0  0  0  0  0  0
   36.8310   16.6760    9.1170 C   0  0  0  0  0  0  0  0  0  0  0  0
   38.2930   16.8190    9.5110 C   0  0  0  0  0  0  0  0  0  0  0  0
   38.5230   17.8680   10.5810 C   0  0  0  0  0  0  0  0  0  0  0  0
   37.7350   18.8020   10.7330 O   0  0  0  0  0  0  0  0  0  0  0  0
   39.6100   17.7190   11.3300 N   0  0  0  0  0  0  0  0  0  0  0  0
   32.5640   16.7700    8.9430 N   0  0  0  0  0  0  0  0  0  0  0  0
   31.8390   17.9920    9.2630 C   0  0  2  0  0  0  0  0  0  0  0  0
   32.0780   19.1130    8.2580 C   0  0  0  0  0  0  0  0  0  0  0  0
   31.5380   20.2080    8.4420 O   0  0  0  0  0  0  0  0  0  0  0  0
   32.2220   18.4690   10.6670 C   0  0  2  0  0  0  0  0  0  0  0  0
   33.5650   18.9690   10.6570 O   0  0  0  0  0  0  0  0  0  0  0  0
   32.1320   17.3160   11.6540 C   0  0  0  0  0  0  0  0  0  0  0  0
   32.8570   18.8730    7.2070 N   0  0  0  0  0  0  0  0  0  0  0  0
   33.1320   19.9140    6.2270 C   0  0  2  0  0  0  0  0  0  0  0  0
   31.9020   20.2040    5.3750 C   0  0  0  0  0  0  0  0  0  0  0  0
   31.0650   19.3310    5.1300 O   0  0  0  0  0  0  0  0  0  0  0  0
   34.2930   19.5040    5.3200 C   0  0  0  0  0  0  0  0  0  0  0  0
   35.6240   19.4920    6.0400 C   0  0  0  0  0  0  0  0  0  0  0  0
   35.6950   19.7340    7.2430 O   0  0  0  0  0  0  0  0  0  0  0  0
   36.6900   19.2010    5.3040 N   0  0  0  0  0  0  0  0  0  0  0  0
   31.7970   21.4530    4.9240 N   0  0  0  0  0  0  0  0  0  0  0  0
   30.8210   21.7830    3.9060 C   0  0  0  0  0  0  0  0  0  0  0  0
   31.0830   21.0320    2.6140 C   0  0  0  0  0  0  0  0  0  0  0  0
   32.1700   20.4960    2.3840 O   0  0  0  0  0  0  0  0  0  0  0  0
   30.0590   20.9990    1.7560 N   0  0  0  0  0  0  0  0  0  0  0  0
   30.1160   20.1810    0.5450 C   0  0  2  0  0  0  0  0  0  0  0  0
   31.3230   20.5590   -0.3060 C   0  0  0  0  0  0  0  0  0  0  0  0
   32.0500   19.6910   -0.8050 O   0  0  0  0  0  0  0  0  0  0  0  0
   28.8050   20.3090   -0.2510 C   0  0  0  0  0  0  0  0  0  0  0  0
   28.9040   19.5420   -1.5620 C   0  0  0  0  0  0  0  0  0  0  0  0
   27.6360   19.8070    0.5750 C   0  0  0  0  0  0  0  0  0  0  0  0
   31.5610   21.8600   -0.4750 N   0  0  0  0  0  0  0  0  0  0  0  0
   32.6900   22.3120   -1.2680 C   0  0  0  0  0  0  0  0  0  0  0  0
   34.0380   21.8910   -0.7230 C   0  0  0  0  0  0  0  0  0  0  0  0
   35.0290   21.9180   -1.4580 O   0  0  0  0  0  0  0  0  0  0  0  0
   34.1000   21.4980    0.5480 N   0  0  0  0  0  0  0  0  0  0  0  0
   35.3430   21.0780    1.1790 C   0  0  2  0  0  0  0  0  0  0  0  0
   35.4090   19.5760    1.4090 C   0  0  0  0  0  0  0  0  0  0  0  0
   36.4140   19.0870    1.9370 O   0  0  0  0  0  0  0  0  0  0  0  0
   35.5360   21.8110    2.5110 C   0  0  0  0  0  0  0  0  0  0  0  0
   35.7500   23.3040    2.3750 C   0  0  0  0  0  0  0  0  0  0  0  0
   34.7220   24.1360    1.9550 C   0  0  0  0  0  0  0  0  0  0  0  0
   36.9740   23.8820    2.6870 C   0  0  0  0  0  0  0  0  0  0  0  0
   34.9090   25.4940    1.8340 C   0  0  0  0  0  0  0  0  0  0  0  0
   37.1700   25.2460    2.5720 C   0  0  0  0  0  0  0  0  0  0  0  0
   36.1310   26.0470    2.1450 C   0  0  0  0  0  0  0  0  0  0  0  0
   36.3110   27.4070    2.0260 O   0  0  0  0  0  0  0  0  0  0  0  0
  2  1  1  6
  3  2  1  0
  4  3  2  0
  5  2  1  0
  6  5  1  0
  7  6  1  0
  8  7  1  0
  9  8  1  0
 10  9  1  0
 11  9  2  0
 13 12  1  1
 14 13  1  0
 15 14  2  0
 16 13  1  0
 17 16  1  0
 18 17  2  0
 19 17  1  0
 20 18  1  0
 21 19  2  0
 22 21  1  0
 22 20  2  0
 23 22  1  0
 25 24  1  1
 26 25  1  0
 27 26  2  0
 28 25  1  0
 29 28  1  0
 30 29  2  0
 31 29  1  0
 32 30  1  0
 33 31  2  0
 34 32  2  0
 34 33  1  0
 35 34  1  0
 37 36  1  1
 38 37  1  0
 39 38  2  0
 40 37  1  0
 41 40  1  0
 42 38  1  0
 43 42  1  0
 44 43  1  0
 45 44  2  0
 43 46  1  6
 47 46  1  0
 48 47  2  0
 49 47  1  0
 50 48  1  0
 51 49  2  0
 52 51  1  0
 52 50  2  0
 53 52  1  0
 54 44  1  0
 55 54  1  0
 56 55  1  0
 57 56  2  0
 58 56  1  0
 59 58  1  0
 60 59  1  0
 61 60  2  0
 59 62  1  6
 63 62  1  0
 64 63  2  0
 65 63  1  0
 66 64  1  0
 67 65  2  0
 68 67  1  0
 68 66  2  0
 69 60  1  0
 70 69  1  0
 71 70  1  0
 72 71  2  0
 70 73  1  1
 74 73  1  0
 75 74  1  0
 76 75  2  0
 77 75  1  0
 79 78  1  6
 80 79  1  0
 81 80  2  0
 82 79  1  0
 83 82  1  0
 82 84  1  1
 85 80  1  0
 86 85  1  0
 87 86  1  0
 88 87  2  0
 86 89  1  6
 90 89  1  0
 91 90  2  0
 92 90  1  0
 93 87  1  0
 94 93  1  0
 95 94  1  0
 96 95  2  0
 97 95  1  0
 98 97  1  1
 99 98  1  0
100 99  2  0
101 98  1  0
102101  1  0
103101  1  0
104 99  1  0
105104  1  0
106105  1  0
107106  2  0
108106  1  0
109108  1  0
110109  1  0
111110  2  0
109112  1  1
113112  1  0
114113  2  0
115113  1  0
116114  1  0
117115  2  0
118117  1  0
118116  2  0
119118  1  0
M  END
$$$$
