
     RDKit          3D

104101  0  0  0  0  0  0  0  0999 V2000
   59.5270  -79.4350   -9.9720 N   0  0  0  0  0  0  0  0  0  0  0  0
   60.3800  -79.6440  -11.1370 C   0  0  2  0  0  0  0  0  0  0  0  0
   61.5250  -80.5940  -10.8070 C   0  0  0  0  0  0  0  0  0  0  0  0
   61.8870  -80.7940   -9.6450 O   0  0  0  0  0  0  0  0  0  0  0  0
   60.9910  -78.3330  -11.6230 C   0  0  0  0  0  0  0  0  0  0  0  0
   60.0280  -77.3010  -12.1100 C   0  0  0  0  0  0  0  0  0  0  0  0
   60.7710  -75.9990  -12.3260 C   0  0  0  0  0  0  0  0  0  0  0  0
   62.0030  -76.2060  -13.0780 N   0  0  0  0  0  0  0  0  0  0  0  0
   62.8410  -75.2310  -13.4100 C   0  0  0  0  0  0  0  0  0  0  0  0
   62.5750  -73.9870  -13.0460 N   0  0  0  0  0  0  0  0  0  0  0  0
   63.9420  -75.4980  -14.0990 N   0  0  0  0  0  0  0  0  0  0  0  0
   48.4790  -76.9770  -16.0600 N   0  0  0  0  0  0  0  0  0  0  0  0
   48.4200  -75.8790  -15.1040 C   0  0  2  0  0  0  0  0  0  0  0  0
   47.7460  -76.2830  -13.7980 C   0  0  0  0  0  0  0  0  0  0  0  0
   47.2190  -75.4280  -13.0690 O   0  0  0  0  0  0  0  0  0  0  0  0
   47.7290  -74.6750  -15.7480 C   0  0  0  0  0  0  0  0  0  0  0  0
   48.4550  -74.1980  -16.9950 C   0  0  0  0  0  0  0  0  0  0  0  0
   49.5100  -73.2940  -16.9080 C   0  0  0  0  0  0  0  0  0  0  0  0
   48.1050  -74.6760  -18.2560 C   0  0  0  0  0  0  0  0  0  0  0  0
   50.1870  -72.8670  -18.0450 C   0  0  0  0  0  0  0  0  0  0  0  0
   48.7750  -74.2560  -19.3970 C   0  0  0  0  0  0  0  0  0  0  0  0
   49.8130  -73.3520  -19.2870 C   0  0  0  0  0  0  0  0  0  0  0  0
   50.4760  -72.9350  -20.4220 O   0  0  0  0  0  0  0  0  0  0  0  0
   52.9970  -73.6270   -7.2770 N   0  0  0  0  0  0  0  0  0  0  0  0
   54.0320  -73.3670   -6.2860 C   0  0  2  0  0  0  0  0  0  0  0  0
   53.9300  -71.9030   -5.8810 C   0  0  0  0  0  0  0  0  0  0  0  0
   53.4300  -71.0630   -6.6380 O   0  0  0  0  0  0  0  0  0  0  0  0
   55.4390  -73.6790   -6.8210 C   0  0  0  0  0  0  0  0  0  0  0  0
   55.8470  -72.7720   -7.9670 C   0  0  0  0  0  0  0  0  0  0  0  0
   56.5710  -71.6040   -7.7400 C   0  0  0  0  0  0  0  0  0  0  0  0
   55.4870  -73.0710   -9.2720 C   0  0  0  0  0  0  0  0  0  0  0  0
   56.9290  -70.7660   -8.7840 C   0  0  0  0  0  0  0  0  0  0  0  0
   55.8370  -72.2390  -10.3210 C   0  0  0  0  0  0  0  0  0  0  0  0
   56.5580  -71.0900  -10.0750 C   0  0  0  0  0  0  0  0  0  0  0  0
   56.9000  -70.2700  -11.1320 O   0  0  0  0  0  0  0  0  0  0  0  0
   51.8250  -71.2880  -11.6930 N   0  0  0  0  0  0  0  0  0  0  0  0
   51.6970  -72.6500  -12.1820 C   0  0  2  0  0  0  0  0  0  0  0  0
   52.9720  -73.1110  -12.8810 C   0  0  0  0  0  0  0  0  0  0  0  0
   53.7860  -72.3080  -13.3420 O   0  0  0  0  0  0  0  0  0  0  0  0
   50.5200  -72.7790  -13.1390 C   0  0  0  0  0  0  0  0  0  0  0  0
   50.3980  -74.1290  -13.5440 O   0  0  0  0  0  0  0  0  0  0  0  0
   53.1330  -74.4340  -12.9540 N   0  0  0  0  0  0  0  0  0  0  0  0
   54.3030  -75.0010  -13.6180 C   0  0  2  0  0  0  0  0  0  0  0  0
   54.1000  -75.0970  -15.1270 C   0  0  0  0  0  0  0  0  0  0  0  0
   55.0320  -74.8410  -15.9000 O   0  0  0  0  0  0  0  0  0  0  0  0
   54.6290  -76.3840  -13.0440 C   0  0  0  0  0  0  0  0  0  0  0  0
   55.3680  -76.3850  -11.7170 C   0  0  0  0  0  0  0  0  0  0  0  0
   56.6840  -75.9450  -11.6260 C   0  0  0  0  0  0  0  0  0  0  0  0
   54.7580  -76.8590  -10.5580 C   0  0  0  0  0  0  0  0  0  0  0  0
   57.3680  -75.9540  -10.4080 C   0  0  0  0  0  0  0  0  0  0  0  0
   55.4340  -76.8740   -9.3370 C   0  0  0  0  0  0  0  0  0  0  0  0
   56.7380  -76.4200   -9.2730 C   0  0  0  0  0  0  0  0  0  0  0  0
   57.4150  -76.4300   -8.0780 O   0  0  0  0  0  0  0  0  0  0  0  0
   52.8940  -75.4550  -15.5660 N   0  0  0  0  0  0  0  0  0  0  0  0
   52.6360  -75.6410  -16.9800 C   0  0  0  0  0  0  0  0  0  0  0  0
   53.5330  -76.7190  -17.5460 C   0  0  0  0  0  0  0  0  0  0  0  0
   54.4350  -76.4400  -18.3400 O   0  0  0  0  0  0  0  0  0  0  0  0
   54.6230  -79.1410  -19.8730 N   0  0  0  0  0  0  0  0  0  0  0  0
   54.4610  -79.6780  -21.2110 C   0  0  2  0  0  0  0  0  0  0  0  0
   55.3780  -80.8770  -21.3910 C   0  0  0  0  0  0  0  0  0  0  0  0
   56.5080  -80.8740  -20.8850 O   0  0  0  0  0  0  0  0  0  0  0  0
   54.7890  -78.6200  -22.2590 C   0  0  0  0  0  0  0  0  0  0  0  0
   54.1080  -77.2970  -22.0010 C   0  0  0  0  0  0  0  0  0  0  0  0
   54.4370  -76.2650  -23.0560 C   0  0  0  0  0  0  0  0  0  0  0  0
   54.4890  -75.0640  -22.7710 O   0  0  0  0  0  0  0  0  0  0  0  0
   54.6570  -76.7240  -24.2910 N   0  0  0  0  0  0  0  0  0  0  0  0
   57.2220  -81.8120  -23.6220 N   0  0  0  0  0  0  0  0  0  0  0  0
   58.4420  -81.5390  -24.3670 C   0  0  2  0  0  0  0  0  0  0  0  0
   59.4750  -80.7700  -23.5550 C   0  0  0  0  0  0  0  0  0  0  0  0
   60.5750  -80.5240  -24.0600 O   0  0  0  0  0  0  0  0  0  0  0  0
   58.1120  -80.7680  -25.6480 C   0  0  2  0  0  0  0  0  0  0  0  0
   57.4910  -79.5200  -25.3130 O   0  0  0  0  0  0  0  0  0  0  0  0
   57.1640  -81.5850  -26.5170 C   0  0  0  0  0  0  0  0  0  0  0  0
   59.1540  -80.3870  -22.3210 N   0  0  0  0  0  0  0  0  0  0  0  0
   60.1170  -79.6770  -21.4910 C   0  0  2  0  0  0  0  0  0  0  0  0
   61.3470  -80.5390  -21.2420 C   0  0  0  0  0  0  0  0  0  0  0  0
   61.2840  -81.7710  -21.2570 O   0  0  0  0  0  0  0  0  0  0  0  0
   59.4920  -79.2850  -20.1510 C   0  0  0  0  0  0  0  0  0  0  0  0
   58.3450  -78.3110  -20.3030 C   0  0  0  0  0  0  0  0  0  0  0  0
   58.2320  -77.6140  -21.3170 O   0  0  0  0  0  0  0  0  0  0  0  0
   57.4840  -78.2500  -19.2890 N   0  0  0  0  0  0  0  0  0  0  0  0
   62.4810  -79.8770  -21.0230 N   0  0  0  0  0  0  0  0  0  0  0  0
   63.6480  -80.5780  -20.5270 C   0  0  0  0  0  0  0  0  0  0  0  0
   63.3630  -81.2500  -19.1990 C   0  0  0  0  0  0  0  0  0  0  0  0
   62.4380  -80.8760  -18.4750 O   0  0  0  0  0  0  0  0  0  0  0  0
   64.1650  -82.2700  -18.8790 N   0  0  0  0  0  0  0  0  0  0  0  0
   63.9150  -83.0310  -17.6550 C   0  0  2  0  0  0  0  0  0  0  0  0
   63.9290  -82.1100  -16.4450 C   0  0  0  0  0  0  0  0  0  0  0  0
   63.1790  -82.3230  -15.4840 O   0  0  0  0  0  0  0  0  0  0  0  0
   64.9310  -84.1820  -17.4950 C   0  0  0  0  0  0  0  0  0  0  0  0
   64.8160  -85.1600  -18.6530 C   0  0  0  0  0  0  0  0  0  0  0  0
   66.3470  -83.6430  -17.3680 C   0  0  0  0  0  0  0  0  0  0  0  0
   62.7120  -79.2390  -16.2150 N   0  0  0  0  0  0  0  0  0  0  0  0
   61.4220  -78.5730  -16.1300 C   0  0  2  0  0  0  0  0  0  0  0  0
   60.2660  -79.5590  -16.1050 C   0  0  0  0  0  0  0  0  0  0  0  0
   59.1050  -79.1400  -16.1710 O   0  0  0  0  0  0  0  0  0  0  0  0
   61.2410  -77.6080  -17.2990 C   0  0  0  0  0  0  0  0  0  0  0  0
   62.0120  -76.3150  -17.1960 C   0  0  0  0  0  0  0  0  0  0  0  0
   63.3620  -76.2610  -17.5100 C   0  0  0  0  0  0  0  0  0  0  0  0
   61.3800  -75.1380  -16.8130 C   0  0  0  0  0  0  0  0  0  0  0  0
   64.0690  -75.0690  -17.4280 C   0  0  0  0  0  0  0  0  0  0  0  0
   62.0750  -73.9450  -16.7290 C   0  0  0  0  0  0  0  0  0  0  0  0
   63.4180  -73.9170  -17.0390 C   0  0  0  0  0  0  0  0  0  0  0  0
   64.1190  -72.7360  -16.9580 O   0  0  0  0  0  0  0  0  0  0  0  0
  2  1  1  1
  3  2  1  0
  4  3  2  0
  5  2  1  0
  6  5  1  0
  7  6  1  0
  8  7  1  0
  9  8  1  0
 10  9  1  0
 11  9  2  0
 13 12  1  6
 14 13  1  0
 15 14  2  0
 16 13  1  0
 17 16  1  0
 18 17  2  0
 19 17  1  0
 20 18  1  0
 21 19  2  0
 22 21  1  0
 22 20  2  0
 23 22  1  0
 25 24  1  6
 26 25  1  0
 27 26  2  0
 28 25  1  0
 29 28  1  0
 30 29  2  0
 31 29  1  0
 32 30  1  0
 33 31  2  0
 34 33  1  0
 34 32  2  0
 35 34  1  0
 37 36  1  6
 38 37  1  0
 39 38  2  0
 40 37  1  0
 41 40  1  0
 42 38  1  0
 43 42  1  0
 44 43  1  0
 45 44  2  0
 43 46  1  1
 47 46  1  0
 48 47  2  0
 49 47  1  0
 50 48  1  0
 51 49  2  0
 52 51  1  0
 52 50  2  0
 53 52  1  0
 54 44  1  0
 55 54  1  0
 56 55  1  0
 57 56  2  0
 59 58  1  1
 60 59  1  0
 61 60  2  0
 62 59  1  0
 63 62  1  0
 64 63  1  0
 65 64  2  0
 66 64  1  0
 68 67  1  1
 69 68  1  0
 70 69  2  0
 71 68  1  0
 72 71  1  0
 71 73  1  6
 74 69  1  0
 75 74  1  0
 76 75  1  0
 77 76  2  0
 75 78  1  1
 79 78  1  0
 80 79  2  0
 81 79  1  0
 82 76  1  0
 83 82  1  0
 84 83  1  0
 85 84  2  0
 86 84  1  0
 87 86  1  6
 88 87  1  0
 89 88  2  0
 90 87  1  0
 91 90  1  0
 92 90  1  0
 94 93  1  6
 95 94  1  0
 96 95  2  0
 97 94  1  0
 98 97  1  0
 99 98  2  0
100 98  1  0
101 99  1  0
102100  2  0
103102  1  0
103101  2  0
104103  1  0
M  END
$$$$
