
     RDKit          3D

119119  0  0  0  0  0  0  0  0999 V2000
  -63.7210  -26.3950   12.9940 N   0  0  0  0  0  0  0  0  0  0  0  0
  -62.9390  -25.1740   13.1490 C   0  0  2  0  0  0  0  0  0  0  0  0
  -63.4220  -24.0890   12.1860 C   0  0  0  0  0  0  0  0  0  0  0  0
  -64.1340  -24.3510   11.2110 O   0  0  0  0  0  0  0  0  0  0  0  0
  -61.4280  -25.4160   12.9650 C   0  0  0  0  0  0  0  0  0  0  0  0
  -61.0290  -26.3250   11.8600 C   0  0  0  0  0  0  0  0  0  0  0  0
  -59.5010  -26.5610   11.8960 C   0  0  0  0  0  0  0  0  0  0  0  0
  -58.7890  -25.4540   11.2680 N   0  0  0  0  0  0  0  0  0  0  0  0
  -57.6620  -25.6000   10.5810 C   0  0  0  0  0  0  0  0  0  0  0  0
  -57.1300  -26.8040   10.4560 N   0  0  0  0  0  0  0  0  0  0  0  0
  -57.0720  -24.5530   10.0290 N   0  0  0  0  0  0  0  0  0  0  0  0
  -59.4700  -32.0310   23.6350 N   0  0  0  0  0  0  0  0  0  0  0  0
  -59.3530  -33.0960   22.6500 C   0  0  2  0  0  0  0  0  0  0  0  0
  -60.6370  -33.9070   22.4910 C   0  0  0  0  0  0  0  0  0  0  0  0
  -60.6320  -34.9310   21.8020 O   0  0  0  0  0  0  0  0  0  0  0  0
  -58.1800  -34.0080   23.0090 C   0  0  0  0  0  0  0  0  0  0  0  0
  -56.8590  -33.2810   22.9480 C   0  0  0  0  0  0  0  0  0  0  0  0
  -56.2000  -33.0990   21.7380 C   0  0  0  0  0  0  0  0  0  0  0  0
  -56.2860  -32.7490   24.0960 C   0  0  0  0  0  0  0  0  0  0  0  0
  -55.0020  -32.4200   21.6760 C   0  0  0  0  0  0  0  0  0  0  0  0
  -55.0860  -32.0700   24.0430 C   0  0  0  0  0  0  0  0  0  0  0  0
  -54.4510  -31.9070   22.8330 C   0  0  0  0  0  0  0  0  0  0  0  0
  -53.2580  -31.2320   22.7840 O   0  0  0  0  0  0  0  0  0  0  0  0
  -62.8720  -35.2910   14.2750 N   0  0  0  0  0  0  0  0  0  0  0  0
  -63.3800  -35.3660   12.9100 C   0  0  2  0  0  0  0  0  0  0  0  0
  -62.7760  -36.6000   12.2450 C   0  0  0  0  0  0  0  0  0  0  0  0
  -61.7330  -37.1060   12.6680 O   0  0  0  0  0  0  0  0  0  0  0  0
  -63.0520  -34.0950   12.1110 C   0  0  0  0  0  0  0  0  0  0  0  0
  -61.5630  -33.8700   11.9230 C   0  0  0  0  0  0  0  0  0  0  0  0
  -60.8000  -33.2580   12.9180 C   0  0  0  0  0  0  0  0  0  0  0  0
  -60.9190  -34.2980   10.7660 C   0  0  0  0  0  0  0  0  0  0  0  0
  -59.4260  -33.0500   12.7470 C   0  0  0  0  0  0  0  0  0  0  0  0
  -59.5560  -34.1100   10.5910 C   0  0  0  0  0  0  0  0  0  0  0  0
  -58.8170  -33.4900   11.5820 C   0  0  0  0  0  0  0  0  0  0  0  0
  -57.4670  -33.3000   11.4000 O   0  0  0  0  0  0  0  0  0  0  0  0
  -58.4020  -35.7000   16.6110 N   0  0  0  0  0  0  0  0  0  0  0  0
  -58.9080  -34.6540   17.4890 C   0  0  2  0  0  0  0  0  0  0  0  0
  -58.4900  -33.2700   16.9990 C   0  0  0  0  0  0  0  0  0  0  0  0
  -57.3770  -33.0840   16.4960 O   0  0  0  0  0  0  0  0  0  0  0  0
  -58.4090  -34.8580   18.9160 C   0  0  0  0  0  0  0  0  0  0  0  0
  -58.8010  -33.7480   19.6970 O   0  0  0  0  0  0  0  0  0  0  0  0
  -59.3940  -32.2950   17.1520 N   0  0  0  0  0  0  0  0  0  0  0  0
  -59.0400  -30.9040   16.8910 C   0  0  2  0  0  0  0  0  0  0  0  0
  -58.0730  -30.3580   17.9430 C   0  0  0  0  0  0  0  0  0  0  0  0
  -57.2000  -29.5460   17.6270 O   0  0  0  0  0  0  0  0  0  0  0  0
  -60.2960  -30.0430   16.8690 C   0  0  0  0  0  0  0  0  0  0  0  0
  -61.1170  -30.1090   15.6090 C   0  0  0  0  0  0  0  0  0  0  0  0
  -60.6790  -29.5130   14.4400 C   0  0  0  0  0  0  0  0  0  0  0  0
  -62.3540  -30.7380   15.6090 C   0  0  0  0  0  0  0  0  0  0  0  0
  -61.4430  -29.5610   13.2840 C   0  0  0  0  0  0  0  0  0  0  0  0
  -63.1420  -30.7780   14.4540 C   0  0  0  0  0  0  0  0  0  0  0  0
  -62.6860  -30.1800   13.3110 C   0  0  0  0  0  0  0  0  0  0  0  0
  -63.4510  -30.2100   12.1660 O   0  0  0  0  0  0  0  0  0  0  0  0
  -58.2320  -30.7490   19.2020 N   0  0  0  0  0  0  0  0  0  0  0  0
  -57.3410  -30.1940   20.2260 C   0  0  0  0  0  0  0  0  0  0  0  0
  -57.3920  -28.6860   20.4080 C   0  0  0  0  0  0  0  0  0  0  0  0
  -56.3480  -28.0530   20.6090 O   0  0  0  0  0  0  0  0  0  0  0  0
  -58.5910  -28.1010   20.3740 N   0  0  0  0  0  0  0  0  0  0  0  0
  -58.7850  -26.6530   20.4750 C   0  0  2  0  0  0  0  0  0  0  0  0
  -58.1220  -26.0460   21.7130 C   0  0  0  0  0  0  0  0  0  0  0  0
  -58.3940  -26.4520   22.8450 O   0  0  0  0  0  0  0  0  0  0  0  0
  -60.2820  -26.3480   20.5210 C   0  0  0  0  0  0  0  0  0  0  0  0
  -61.0350  -26.7370   19.2710 C   0  0  0  0  0  0  0  0  0  0  0  0
  -60.7410  -26.1370   18.0600 C   0  0  0  0  0  0  0  0  0  0  0  0
  -62.0730  -27.6670   19.3250 C   0  0  0  0  0  0  0  0  0  0  0  0
  -61.4410  -26.4680   16.9060 C   0  0  0  0  0  0  0  0  0  0  0  0
  -62.7890  -27.9960   18.1790 C   0  0  0  0  0  0  0  0  0  0  0  0
  -62.4700  -27.3960   16.9640 C   0  0  0  0  0  0  0  0  0  0  0  0
  -57.2930  -25.0290   21.4920 N   0  0  0  0  0  0  0  0  0  0  0  0
  -56.6850  -24.2350   22.5480 C   0  0  2  0  0  0  0  0  0  0  0  0
  -57.1020  -22.7770   22.4150 C   0  0  0  0  0  0  0  0  0  0  0  0
  -57.1890  -22.2630   21.2940 O   0  0  0  0  0  0  0  0  0  0  0  0
  -55.1540  -24.3070   22.4940 C   0  0  0  0  0  0  0  0  0  0  0  0
  -54.5600  -25.6990   22.5220 C   0  0  0  0  0  0  0  0  0  0  0  0
  -53.0440  -25.6470   22.5810 C   0  0  0  0  0  0  0  0  0  0  0  0
  -52.4750  -24.9650   23.4270 O   0  0  0  0  0  0  0  0  0  0  0  0
  -52.3870  -26.3480   21.6680 N   0  0  0  0  0  0  0  0  0  0  0  0
  -55.6300  -20.0070   22.6110 N   0  0  0  0  0  0  0  0  0  0  0  0
  -54.6750  -19.1610   21.8960 C   0  0  2  0  0  0  0  0  0  0  0  0
  -54.5940  -19.4550   20.3930 C   0  0  0  0  0  0  0  0  0  0  0  0
  -53.7790  -18.8320   19.6980 O   0  0  0  0  0  0  0  0  0  0  0  0
  -53.2770  -19.3190   22.5110 C   0  0  2  0  0  0  0  0  0  0  0  0
  -52.8810  -20.6990   22.4390 O   0  0  0  0  0  0  0  0  0  0  0  0
  -53.2770  -18.8510   23.9550 C   0  0  0  0  0  0  0  0  0  0  0  0
  -55.3930  -20.3880   19.8850 N   0  0  0  0  0  0  0  0  0  0  0  0
  -55.4650  -20.6480   18.4490 C   0  0  2  0  0  0  0  0  0  0  0  0
  -55.8380  -19.3870   17.6750 C   0  0  0  0  0  0  0  0  0  0  0  0
  -56.6210  -18.5550   18.1400 O   0  0  0  0  0  0  0  0  0  0  0  0
  -56.5050  -21.7300   18.1570 C   0  0  0  0  0  0  0  0  0  0  0  0
  -55.9850  -23.1270   18.4370 C   0  0  0  0  0  0  0  0  0  0  0  0
  -54.8190  -23.3010   18.7910 O   0  0  0  0  0  0  0  0  0  0  0  0
  -56.8530  -24.1210   18.3100 N   0  0  0  0  0  0  0  0  0  0  0  0
  -55.2820  -19.2520   16.4700 N   0  0  0  0  0  0  0  0  0  0  0  0
  -55.8160  -18.2790   15.5360 C   0  0  0  0  0  0  0  0  0  0  0  0
  -57.2600  -18.5990   15.1860 C   0  0  0  0  0  0  0  0  0  0  0  0
  -57.7100  -19.7310   15.3110 O   0  0  0  0  0  0  0  0  0  0  0  0
  -57.9950  -17.5770   14.7410 N   0  0  0  0  0  0  0  0  0  0  0  0
  -59.4470  -17.7150   14.5850 C   0  0  2  0  0  0  0  0  0  0  0  0
  -59.8030  -18.8880   13.6720 C   0  0  0  0  0  0  0  0  0  0  0  0
  -60.7800  -19.6090   13.9150 O   0  0  0  0  0  0  0  0  0  0  0  0
  -60.0510  -16.3870   14.0850 C   0  0  0  0  0  0  0  0  0  0  0  0
  -61.4500  -16.5970   13.5580 C   0  0  0  0  0  0  0  0  0  0  0  0
  -60.0720  -15.3790   15.2100 C   0  0  0  0  0  0  0  0  0  0  0  0
  -59.0040  -19.1320   12.6330 N   0  0  0  0  0  0  0  0  0  0  0  0
  -59.3010  -20.2430   11.7390 C   0  0  0  0  0  0  0  0  0  0  0  0
  -59.1450  -21.6090   12.3750 C   0  0  0  0  0  0  0  0  0  0  0  0
  -59.7230  -22.5870   11.8860 O   0  0  0  0  0  0  0  0  0  0  0  0
  -58.3810  -21.6960   13.4590 N   0  0  0  0  0  0  0  0  0  0  0  0
  -58.2250  -22.9270   14.2140 C   0  0  2  0  0  0  0  0  0  0  0  0
  -59.1440  -22.9910   15.4310 C   0  0  0  0  0  0  0  0  0  0  0  0
  -59.1090  -23.9820   16.1610 O   0  0  0  0  0  0  0  0  0  0  0  0
  -56.7680  -23.0780   14.6660 C   0  0  0  0  0  0  0  0  0  0  0  0
  -55.8240  -23.5610   13.5700 C   0  0  0  0  0  0  0  0  0  0  0  0
  -55.2080  -22.6620   12.6990 C   0  0  0  0  0  0  0  0  0  0  0  0
  -55.5600  -24.9180   13.4130 C   0  0  0  0  0  0  0  0  0  0  0  0
  -54.3390  -23.1160   11.6960 C   0  0  0  0  0  0  0  0  0  0  0  0
  -54.6990  -25.3800   12.4170 C   0  0  0  0  0  0  0  0  0  0  0  0
  -54.0980  -24.4750   11.5630 C   0  0  0  0  0  0  0  0  0  0  0  0
  -53.2360  -24.9420   10.5840 O   0  0  0  0  0  0  0  0  0  0  0  0
  2  1  1  6
  3  2  1  0
  4  3  2  0
  5  2  1  0
  6  5  1  0
  7  6  1  0
  8  7  1  0
  9  8  1  0
 10  9  1  0
 11  9  2  0
 13 12  1  1
 14 13  1  0
 15 14  2  0
 16 13  1  0
 17 16  1  0
 18 17  2  0
 19 17  1  0
 20 18  1  0
 21 19  2  0
 22 20  2  0
 22 21  1  0
 23 22  1  0
 25 24  1  1
 26 25  1  0
 27 26  2  0
 28 25  1  0
 29 28  1  0
 30 29  2  0
 31 29  1  0
 32 30  1  0
 33 31  2  0
 34 33  1  0
 34 32  2  0
 35 34  1  0
 37 36  1  6
 38 37  1  0
 39 38  2  0
 40 37  1  0
 41 40  1  0
 42 38  1  0
 43 42  1  0
 44 43  1  0
 45 44  2  0
 43 46  1  1
 47 46  1  0
 48 47  2  0
 49 47  1  0
 50 48  1  0
 51 49  2  0
 52 51  1  0
 52 50  2  0
 53 52  1  0
 54 44  1  0
 55 54  1  0
 56 55  1  0
 57 56  2  0
 58 56  1  0
 59 58  1  0
 60 59  1  0
 61 60  2  0
 59 62  1  1
 63 62  1  0
 64 63  2  0
 65 63  1  0
 66 64  1  0
 67 65  2  0
 68 67  1  0
 68 66  2  0
 69 60  1  0
 70 69  1  0
 71 70  1  0
 72 71  2  0
 70 73  1  6
 74 73  1  0
 75 74  1  0
 76 75  2  0
 77 75  1  0
 79 78  1  1
 80 79  1  0
 81 80  2  0
 82 79  1  0
 83 82  1  0
 82 84  1  1
 85 80  1  0
 86 85  1  0
 87 86  1  0
 88 87  2  0
 86 89  1  1
 90 89  1  0
 91 90  2  0
 92 90  1  0
 93 87  1  0
 94 93  1  0
 95 94  1  0
 96 95  2  0
 97 95  1  0
 98 97  1  6
 99 98  1  0
100 99  2  0
101 98  1  0
102101  1  0
103101  1  0
104 99  1  0
105104  1  0
106105  1  0
107106  2  0
108106  1  0
109108  1  0
110109  1  0
111110  2  0
109112  1  1
113112  1  0
114113  2  0
115113  1  0
116114  1  0
117115  2  0
118117  1  0
118116  2  0
119118  1  0
M  END
$$$$
