
     RDKit          3D

106103  0  0  0  0  0  0  0  0999 V2000
  -19.7910  -22.6210  -29.4060 N   0  0  0  0  0  0  0  0  0  0  0  0
  -19.6080  -21.2840  -29.9460 C   0  0  2  0  0  0  0  0  0  0  0  0
  -20.0420  -20.2380  -28.9210 C   0  0  0  0  0  0  0  0  0  0  0  0
  -20.6750  -20.5440  -27.9060 O   0  0  0  0  0  0  0  0  0  0  0  0
  -20.3810  -21.1170  -31.2540 C   0  0  0  0  0  0  0  0  0  0  0  0
  -21.8850  -21.2460  -31.1130 C   0  0  0  0  0  0  0  0  0  0  0  0
  -22.5860  -21.0680  -32.4510 C   0  0  0  0  0  0  0  0  0  0  0  0
  -22.7840  -19.6600  -32.7820 N   0  0  0  0  0  0  0  0  0  0  0  0
  -23.4890  -19.2290  -33.8220 C   0  0  0  0  0  0  0  0  0  0  0  0
  -24.0680  -20.0970  -34.6400 N   0  0  0  0  0  0  0  0  0  0  0  0
  -23.6170  -17.9280  -34.0460 N   0  0  0  0  0  0  0  0  0  0  0  0
  -12.9840  -28.4060  -38.0200 N   0  0  0  0  0  0  0  0  0  0  0  0
  -14.2220  -29.1700  -37.9970 C   0  0  2  0  0  0  0  0  0  0  0  0
  -14.1290  -30.4030  -37.1050 C   0  0  0  0  0  0  0  0  0  0  0  0
  -14.8700  -31.3700  -37.3080 O   0  0  0  0  0  0  0  0  0  0  0  0
  -14.6250  -29.5510  -39.4230 C   0  0  0  0  0  0  0  0  0  0  0  0
  -14.8420  -28.3450  -40.3130 C   0  0  0  0  0  0  0  0  0  0  0  0
  -16.1100  -27.8060  -40.4950 C   0  0  0  0  0  0  0  0  0  0  0  0
  -13.7770  -27.7410  -40.9640 C   0  0  0  0  0  0  0  0  0  0  0  0
  -16.3070  -26.6990  -41.3060 C   0  0  0  0  0  0  0  0  0  0  0  0
  -13.9660  -26.6420  -41.7730 C   0  0  0  0  0  0  0  0  0  0  0  0
  -15.2280  -26.1190  -41.9380 C   0  0  0  0  0  0  0  0  0  0  0  0
  -15.4030  -25.0180  -42.7470 O   0  0  0  0  0  0  0  0  0  0  0  0
  -21.4700  -31.1940  -32.5560 N   0  0  0  0  0  0  0  0  0  0  0  0
  -22.6030  -30.9970  -31.6650 C   0  0  2  0  0  0  0  0  0  0  0  0
  -23.7750  -31.8010  -32.2040 C   0  0  0  0  0  0  0  0  0  0  0  0
  -23.9240  -31.9630  -33.4180 O   0  0  0  0  0  0  0  0  0  0  0  0
  -22.9730  -29.5120  -31.5310 C   0  0  0  0  0  0  0  0  0  0  0  0
  -23.5190  -28.8800  -32.7950 C   0  0  0  0  0  0  0  0  0  0  0  0
  -24.8770  -28.9230  -33.0890 C   0  0  0  0  0  0  0  0  0  0  0  0
  -22.6760  -28.2360  -33.6920 C   0  0  0  0  0  0  0  0  0  0  0  0
  -25.3770  -28.3470  -34.2400 C   0  0  0  0  0  0  0  0  0  0  0  0
  -23.1700  -27.6560  -34.8470 C   0  0  0  0  0  0  0  0  0  0  0  0
  -24.5210  -27.7150  -35.1150 C   0  0  0  0  0  0  0  0  0  0  0  0
  -25.0200  -27.1410  -36.2620 O   0  0  0  0  0  0  0  0  0  0  0  0
  -23.3460  -32.6310  -36.3770 N   0  0  0  0  0  0  0  0  0  0  0  0
  -22.8810  -31.6120  -37.3050 C   0  0  2  0  0  0  0  0  0  0  0  0
  -21.6080  -30.9900  -36.7510 C   0  0  0  0  0  0  0  0  0  0  0  0
  -21.4050  -30.9340  -35.5360 O   0  0  0  0  0  0  0  0  0  0  0  0
  -23.9440  -30.5250  -37.5310 C   0  0  0  0  0  0  0  0  0  0  0  0
  -23.5340  -29.3950  -38.4710 C   0  0  0  0  0  0  0  0  0  0  0  0
  -23.5780  -29.7970  -39.9330 C   0  0  0  0  0  0  0  0  0  0  0  0
  -24.5260  -29.4700  -40.6480 O   0  0  0  0  0  0  0  0  0  0  0  0
  -22.5480  -30.5020  -40.3880 N   0  0  0  0  0  0  0  0  0  0  0  0
  -20.7500  -30.5250  -37.6510 N   0  0  0  0  0  0  0  0  0  0  0  0
  -19.4890  -29.9140  -37.2660 C   0  0  2  0  0  0  0  0  0  0  0  0
  -19.6220  -28.3980  -37.2130 C   0  0  0  0  0  0  0  0  0  0  0  0
  -20.3040  -27.7910  -38.0440 O   0  0  0  0  0  0  0  0  0  0  0  0
  -18.3790  -30.3050  -38.2360 C   0  0  0  0  0  0  0  0  0  0  0  0
  -17.1310  -29.9410  -37.6930 O   0  0  0  0  0  0  0  0  0  0  0  0
  -18.9500  -27.7920  -36.2320 N   0  0  0  0  0  0  0  0  0  0  0  0
  -19.0320  -26.3470  -36.0410 C   0  0  2  0  0  0  0  0  0  0  0  0
  -18.3540  -25.5970  -37.1820 C   0  0  0  0  0  0  0  0  0  0  0  0
  -19.0000  -24.8420  -37.9170 O   0  0  0  0  0  0  0  0  0  0  0  0
  -18.4010  -25.9670  -34.7030 C   0  0  0  0  0  0  0  0  0  0  0  0
  -19.3770  -25.9060  -33.5550 C   0  0  0  0  0  0  0  0  0  0  0  0
  -20.3010  -24.8740  -33.4560 C   0  0  0  0  0  0  0  0  0  0  0  0
  -19.3710  -26.8790  -32.5660 C   0  0  0  0  0  0  0  0  0  0  0  0
  -21.1930  -24.8150  -32.4040 C   0  0  0  0  0  0  0  0  0  0  0  0
  -20.2570  -26.8290  -31.5110 C   0  0  0  0  0  0  0  0  0  0  0  0
  -21.1660  -25.7950  -31.4350 C   0  0  0  0  0  0  0  0  0  0  0  0
  -22.0510  -25.7440  -30.3840 O   0  0  0  0  0  0  0  0  0  0  0  0
  -17.0510  -25.8020  -37.3520 N   0  0  0  0  0  0  0  0  0  0  0  0
  -16.3040  -25.0820  -38.3640 C   0  0  0  0  0  0  0  0  0  0  0  0
  -15.8620  -23.6940  -37.9510 C   0  0  0  0  0  0  0  0  0  0  0  0
  -16.2960  -22.6930  -38.5300 O   0  0  0  0  0  0  0  0  0  0  0  0
  -13.3700  -20.6550  -37.8260 N   0  0  0  0  0  0  0  0  0  0  0  0
  -12.2960  -20.0210  -38.5730 C   0  0  2  0  0  0  0  0  0  0  0  0
  -11.9250  -18.6970  -37.9200 C   0  0  0  0  0  0  0  0  0  0  0  0
  -12.7690  -18.0590  -37.2820 O   0  0  0  0  0  0  0  0  0  0  0  0
  -12.6870  -19.7970  -40.0420 C   0  0  0  0  0  0  0  0  0  0  0  0
  -13.2220  -21.0420  -40.7260 C   0  0  0  0  0  0  0  0  0  0  0  0
  -14.2360  -20.7320  -41.8040 C   0  0  0  0  0  0  0  0  0  0  0  0
  -14.9100  -21.6260  -42.3130 O   0  0  0  0  0  0  0  0  0  0  0  0
  -14.3370  -19.4600  -42.1720 N   0  0  0  0  0  0  0  0  0  0  0  0
  -11.6190  -15.5910  -38.4600 N   0  0  0  0  0  0  0  0  0  0  0  0
  -12.3930  -14.3610  -38.5840 C   0  0  2  0  0  0  0  0  0  0  0  0
  -13.8950  -14.6100  -38.5490 C   0  0  0  0  0  0  0  0  0  0  0  0
  -14.6680  -13.7960  -39.0640 O   0  0  0  0  0  0  0  0  0  0  0  0
  -12.0150  -13.5930  -39.8500 C   0  0  2  0  0  0  0  0  0  0  0  0
  -12.5010  -14.2860  -41.0060 O   0  0  0  0  0  0  0  0  0  0  0  0
  -10.5130  -13.4240  -39.9320 C   0  0  0  0  0  0  0  0  0  0  0  0
  -14.3240  -15.7190  -37.9580 N   0  0  0  0  0  0  0  0  0  0  0  0
  -15.7290  -15.8620  -37.6140 C   0  0  2  0  0  0  0  0  0  0  0  0
  -16.1120  -14.7820  -36.6130 C   0  0  0  0  0  0  0  0  0  0  0  0
  -15.2970  -14.3670  -35.7840 O   0  0  0  0  0  0  0  0  0  0  0  0
  -15.9980  -17.2490  -37.0300 C   0  0  0  0  0  0  0  0  0  0  0  0
  -16.1330  -18.3140  -38.0990 C   0  0  0  0  0  0  0  0  0  0  0  0
  -15.9010  -18.0570  -39.2800 O   0  0  0  0  0  0  0  0  0  0  0  0
  -16.5090  -19.5210  -37.6890 N   0  0  0  0  0  0  0  0  0  0  0  0
  -17.3510  -14.3060  -36.7090 N   0  0  0  0  0  0  0  0  0  0  0  0
  -17.8560  -13.3510  -35.7420 C   0  0  0  0  0  0  0  0  0  0  0  0
  -17.7180  -13.8840  -34.3320 C   0  0  0  0  0  0  0  0  0  0  0  0
  -17.7350  -15.1020  -34.1300 O   0  0  0  0  0  0  0  0  0  0  0  0
  -19.7590  -16.6690  -33.3970 N   0  0  0  0  0  0  0  0  0  0  0  0
  -19.3880  -17.9380  -34.0130 C   0  0  2  0  0  0  0  0  0  0  0  0
  -17.9230  -18.2900  -33.7740 C   0  0  0  0  0  0  0  0  0  0  0  0
  -17.3080  -18.9850  -34.5900 O   0  0  0  0  0  0  0  0  0  0  0  0
  -19.6890  -17.9090  -35.5100 C   0  0  0  0  0  0  0  0  0  0  0  0
  -19.8310  -19.2800  -36.1320 C   0  0  0  0  0  0  0  0  0  0  0  0
  -20.0200  -20.4080  -35.3430 C   0  0  0  0  0  0  0  0  0  0  0  0
  -19.7580  -19.4460  -37.5070 C   0  0  0  0  0  0  0  0  0  0  0  0
  -20.1440  -21.6620  -35.9090 C   0  0  0  0  0  0  0  0  0  0  0  0
  -19.8740  -20.6940  -38.0800 C   0  0  0  0  0  0  0  0  0  0  0  0
  -20.0720  -21.7980  -37.2790 C   0  0  0  0  0  0  0  0  0  0  0  0
  -20.1940  -23.0410  -37.8520 O   0  0  0  0  0  0  0  0  0  0  0  0
  2  1  1  1
  3  2  1  0
  4  3  2  0
  5  2  1  0
  6  5  1  0
  7  6  1  0
  8  7  1  0
  9  8  1  0
 10  9  1  0
 11  9  2  0
 13 12  1  6
 14 13  1  0
 15 14  2  0
 16 13  1  0
 17 16  1  0
 18 17  2  0
 19 17  1  0
 20 18  1  0
 21 19  2  0
 22 21  1  0
 22 20  2  0
 23 22  1  0
 25 24  1  6
 26 25  1  0
 27 26  2  0
 28 25  1  0
 29 28  1  0
 30 29  2  0
 31 29  1  0
 32 30  1  0
 33 31  2  0
 34 33  1  0
 34 32  2  0
 35 34  1  0
 37 36  1  1
 38 37  1  0
 39 38  2  0
 40 37  1  0
 41 40  1  0
 42 41  1  0
 43 42  2  0
 44 42  1  0
 45 38  1  0
 46 45  1  0
 47 46  1  0
 48 47  2  0
 46 49  1  6
 50 49  1  0
 51 47  1  0
 52 51  1  0
 53 52  1  0
 54 53  2  0
 52 55  1  1
 56 55  1  0
 57 56  2  0
 58 56  1  0
 59 57  1  0
 60 58  2  0
 61 60  1  0
 61 59  2  0
 62 61  1  0
 63 53  1  0
 64 63  1  0
 65 64  1  0
 66 65  2  0
 68 67  1  1
 69 68  1  0
 70 69  2  0
 71 68  1  0
 72 71  1  0
 73 72  1  0
 74 73  2  0
 75 73  1  0
 77 76  1  6
 78 77  1  0
 79 78  2  0
 80 77  1  0
 81 80  1  0
 80 82  1  6
 83 78  1  0
 84 83  1  0
 85 84  1  0
 86 85  2  0
 84 87  1  1
 88 87  1  0
 89 88  2  0
 90 88  1  0
 91 85  1  0
 92 91  1  0
 93 92  1  0
 94 93  2  0
 96 95  1  6
 97 96  1  0
 98 97  2  0
 99 96  1  0
100 99  1  0
101100  2  0
102100  1  0
103101  1  0
104102  2  0
105104  1  0
105103  2  0
106105  1  0
M  END
$$$$
