
     RDKit          3D

139134  0  0  0  0  0  0  0  0999 V2000
   62.9870   33.9360  -15.1390 N   0  0  0  0  0  0  0  0  0  0  0  0
   62.7110   32.7710  -14.3110 C   0  0  2  0  0  0  0  0  0  0  0  0
   61.2160   32.4850  -14.3350 C   0  0  0  0  0  0  0  0  0  0  0  0
   60.3990   33.4120  -14.3130 O   0  0  0  0  0  0  0  0  0  0  0  0
   63.1650   32.9900  -12.8680 C   0  0  0  0  0  0  0  0  0  0  0  0
   64.6110   32.6360  -12.5790 C   0  0  0  0  0  0  0  0  0  0  0  0
   64.7440   32.2410  -11.1180 C   0  0  0  0  0  0  0  0  0  0  0  0
   66.1130   32.3120  -10.6220 N   0  0  0  0  0  0  0  0  0  0  0  0
   66.4200   32.5140   -9.3450 C   0  0  0  0  0  0  0  0  0  0  0  0
   65.4500   32.6700   -8.4520 N   0  0  0  0  0  0  0  0  0  0  0  0
   67.6890   32.5670   -8.9610 N   0  0  0  0  0  0  0  0  0  0  0  0
   52.5580   23.6270   -5.0510 N   0  0  0  0  0  0  0  0  0  0  0  0
   53.6660   24.3140   -5.7120 C   0  0  2  0  0  0  0  0  0  0  0  0
   54.4180   23.2780   -6.5370 C   0  0  0  0  0  0  0  0  0  0  0  0
   55.2550   22.5370   -6.0170 O   0  0  0  0  0  0  0  0  0  0  0  0
   54.5800   24.9900   -4.6970 C   0  0  0  0  0  0  0  0  0  0  0  0
   55.8770   25.4810   -5.3180 C   0  0  0  0  0  0  0  0  0  0  0  0
   55.8890   25.9910   -6.4400 O   0  0  0  0  0  0  0  0  0  0  0  0
   56.9810   25.3160   -4.5940 N   0  0  0  0  0  0  0  0  0  0  0  0
   56.5110   23.5700   -9.4870 N   0  0  0  0  0  0  0  0  0  0  0  0
   57.8930   23.9000   -9.8170 C   0  0  2  0  0  0  0  0  0  0  0  0
   58.2130   25.2920   -9.2960 C   0  0  0  0  0  0  0  0  0  0  0  0
   57.6200   26.2770   -9.7490 O   0  0  0  0  0  0  0  0  0  0  0  0
   58.1270   23.8280  -11.3280 C   0  0  0  0  0  0  0  0  0  0  0  0
   59.5100   24.2750  -11.8010 C   0  0  0  0  0  0  0  0  0  0  0  0
   60.5530   23.2360  -11.4280 C   0  0  0  0  0  0  0  0  0  0  0  0
   59.5140   24.5340  -13.2980 C   0  0  0  0  0  0  0  0  0  0  0  0
   59.1490   25.3750   -8.3530 N   0  0  0  0  0  0  0  0  0  0  0  0
   59.5810   26.6660   -7.8420 C   0  0  2  0  0  0  0  0  0  0  0  0
   60.3950   27.4100   -8.8990 C   0  0  0  0  0  0  0  0  0  0  0  0
   60.9310   26.8170   -9.8400 O   0  0  0  0  0  0  0  0  0  0  0  0
   60.3920   26.4920   -6.5580 C   0  0  0  0  0  0  0  0  0  0  0  0
   59.6220   25.8530   -5.5520 O   0  0  0  0  0  0  0  0  0  0  0  0
   60.4880   28.7290   -8.7240 N   0  0  0  0  0  0  0  0  0  0  0  0
   61.0100   29.6120   -9.7640 C   0  0  2  0  0  0  0  0  0  0  0  0
   62.4040   29.1930  -10.2180 C   0  0  0  0  0  0  0  0  0  0  0  0
   63.3090   28.9960   -9.4020 O   0  0  0  0  0  0  0  0  0  0  0  0
   61.0290   31.0550   -9.2550 C   0  0  0  0  0  0  0  0  0  0  0  0
   59.6510   31.7120   -9.1300 C   0  0  0  0  0  0  0  0  0  0  0  0
   59.7410   33.0150   -8.3550 C   0  0  0  0  0  0  0  0  0  0  0  0
   59.0340   31.9430  -10.5020 C   0  0  0  0  0  0  0  0  0  0  0  0
   62.5660   29.0600  -11.5330 N   0  0  0  0  0  0  0  0  0  0  0  0
   63.8160   28.6040  -12.1230 C   0  0  2  0  0  0  0  0  0  0  0  0
   63.8720   29.0520  -13.5760 C   0  0  0  0  0  0  0  0  0  0  0  0
   62.8460   29.3630  -14.1880 O   0  0  0  0  0  0  0  0  0  0  0  0
   63.9540   27.0810  -12.0370 C   0  0  2  0  0  0  0  0  0  0  0  0
   65.1060   26.6660  -12.7790 O   0  0  0  0  0  0  0  0  0  0  0  0
   62.7180   26.4040  -12.6130 C   0  0  0  0  0  0  0  0  0  0  0  0
   65.1130   26.9170  -15.7790 N   0  0  0  0  0  0  0  0  0  0  0  0
   65.1120   25.6500  -16.5090 C   0  0  2  0  0  0  0  0  0  0  0  0
   63.7990   25.5520  -17.2820 C   0  0  0  0  0  0  0  0  0  0  0  0
   62.8560   24.8560  -16.8960 O   0  0  0  0  0  0  0  0  0  0  0  0
   65.2980   24.4780  -15.5530 C   0  0  0  0  0  0  0  0  0  0  0  0
   66.6770   24.3970  -14.9130 C   0  0  0  0  0  0  0  0  0  0  0  0
   66.7300   23.2970  -13.8600 C   0  0  0  0  0  0  0  0  0  0  0  0
   66.2990   23.8130  -12.4980 C   0  0  0  0  0  0  0  0  0  0  0  0
   65.1090   23.0980  -11.9560 N   0  0  0  0  0  0  0  0  0  0  0  0
   57.5650   33.1380    0.2320 N   0  0  0  0  0  0  0  0  0  0  0  0
   58.6010   33.5560   -0.6990 C   0  0  0  0  0  0  0  0  0  0  0  0
   59.8300   32.6670   -0.6660 C   0  0  0  0  0  0  0  0  0  0  0  0
   60.4290   32.3850   -1.7070 O   0  0  0  0  0  0  0  0  0  0  0  0
   60.2220   32.2140    0.5280 N   0  0  0  0  0  0  0  0  0  0  0  0
   61.4050   31.3650    0.6450 C   0  0  2  0  0  0  0  0  0  0  0  0
   61.2240   30.0490   -0.1000 C   0  0  0  0  0  0  0  0  0  0  0  0
   62.2030   29.4750   -0.5910 O   0  0  0  0  0  0  0  0  0  0  0  0
   61.7280   31.1010    2.1150 C   0  0  0  0  0  0  0  0  0  0  0  0
   60.5810   30.6820    2.8350 O   0  0  0  0  0  0  0  0  0  0  0  0
   59.9890   29.5580   -0.2010 N   0  0  0  0  0  0  0  0  0  0  0  0
   59.7210   28.3390   -0.9530 C   0  0  2  0  0  0  0  0  0  0  0  0
   59.4860   28.6130   -2.4320 C   0  0  0  0  0  0  0  0  0  0  0  0
   59.8810   27.8050   -3.2790 O   0  0  0  0  0  0  0  0  0  0  0  0
   58.5160   27.6080   -0.3580 C   0  0  0  0  0  0  0  0  0  0  0  0
   58.8660   26.6840    0.8100 C   0  0  0  0  0  0  0  0  0  0  0  0
   57.6230   26.3040    1.6010 C   0  0  0  0  0  0  0  0  0  0  0  0
   59.5990   25.4450    0.3150 C   0  0  0  0  0  0  0  0  0  0  0  0
   58.8480   29.7340   -2.7670 N   0  0  0  0  0  0  0  0  0  0  0  0
   58.6310   30.0560   -4.1730 C   0  0  2  0  0  0  0  0  0  0  0  0
   59.9410   30.4740   -4.8290 C   0  0  0  0  0  0  0  0  0  0  0  0
   60.2390   30.0780   -5.9630 O   0  0  0  0  0  0  0  0  0  0  0  0
   57.5490   31.1430   -4.3140 C   0  0  2  0  0  0  0  0  0  0  0  0
   56.2130   30.6420   -3.7570 C   0  0  0  0  0  0  0  0  0  0  0  0
   57.3950   31.5670   -5.7690 C   0  0  0  0  0  0  0  0  0  0  0  0
   55.6360   29.4630   -4.5100 C   0  0  0  0  0  0  0  0  0  0  0  0
   60.7470   31.2620   -4.1290 N   0  0  0  0  0  0  0  0  0  0  0  0
   62.0030   31.7390   -4.6530 C   0  0  0  0  0  0  0  0  0  0  0  0
   61.9700   33.1060   -5.2940 C   0  0  0  0  0  0  0  0  0  0  0  0
   62.7840   33.3660   -6.1890 O   0  0  0  0  0  0  0  0  0  0  0  0
   61.0590   33.9820   -4.8720 N   0  0  0  0  0  0  0  0  0  0  0  0
   60.9870   35.3320   -5.4180 C   0  0  2  0  0  0  0  0  0  0  0  0
   62.3130   36.0550   -5.2250 C   0  0  0  0  0  0  0  0  0  0  0  0
   62.7970   36.1890   -4.0960 O   0  0  0  0  0  0  0  0  0  0  0  0
   59.8690   36.1230   -4.7380 C   0  0  0  0  0  0  0  0  0  0  0  0
   58.4710   35.6280   -4.9780 C   0  0  0  0  0  0  0  0  0  0  0  0
   57.6250   35.0890   -4.0510 C   0  0  0  0  0  0  0  0  0  0  0  0
   57.7430   35.6570   -6.2130 C   0  0  0  0  0  0  0  0  0  0  0  0
   56.4240   34.7680   -4.6340 N   0  0  0  0  0  0  0  0  0  0  0  0
   56.4700   35.1070   -5.9610 C   0  0  0  0  0  0  0  0  0  0  0  0
   58.0470   36.0840   -7.5090 C   0  0  0  0  0  0  0  0  0  0  0  0
   55.5020   34.9770   -6.9560 C   0  0  0  0  0  0  0  0  0  0  0  0
   57.0830   35.9540   -8.4950 C   0  0  0  0  0  0  0  0  0  0  0  0
   55.8270   35.4050   -8.2130 C   0  0  0  0  0  0  0  0  0  0  0  0
   62.8990   36.5180   -6.3240 N   0  0  0  0  0  0  0  0  0  0  0  0
   64.0400   37.4130   -6.2370 C   0  0  2  0  0  0  0  0  0  0  0  0
   63.5600   38.8450   -6.0070 C   0  0  0  0  0  0  0  0  0  0  0  0
   62.3720   39.1600   -6.1180 O   0  0  0  0  0  0  0  0  0  0  0  0
   64.8880   37.3330   -7.5060 C   0  0  0  0  0  0  0  0  0  0  0  0
   65.4880   35.9630   -7.7710 C   0  0  0  0  0  0  0  0  0  0  0  0
   66.3460   35.9640   -9.0280 C   0  0  0  0  0  0  0  0  0  0  0  0
   65.5400   35.9970  -10.2460 N   0  0  0  0  0  0  0  0  0  0  0  0
   66.0210   36.2700  -11.4550 C   0  0  0  0  0  0  0  0  0  0  0  0
   67.3110   36.5370  -11.6170 N   0  0  0  0  0  0  0  0  0  0  0  0
   65.2110   36.2770  -12.5060 N   0  0  0  0  0  0  0  0  0  0  0  0
   64.5060   39.7260   -5.6790 N   0  0  0  0  0  0  0  0  0  0  0  0
   64.2100   41.1470   -5.5020 C   0  0  2  0  0  0  0  0  0  0  0  0
   64.1940   41.8570   -6.8590 C   0  0  0  0  0  0  0  0  0  0  0  0
   64.9530   42.7870   -7.1270 O   0  0  0  0  0  0  0  0  0  0  0  0
   65.2150   41.7800   -4.5500 C   0  0  0  0  0  0  0  0  0  0  0  0
   64.8590   41.5570   -3.0950 C   0  0  0  0  0  0  0  0  0  0  0  0
   63.7740   41.0710   -2.7750 O   0  0  0  0  0  0  0  0  0  0  0  0
   65.7720   41.9140   -2.2040 N   0  0  0  0  0  0  0  0  0  0  0  0
   58.3450   40.7660   -9.9820 N   0  0  0  0  0  0  0  0  0  0  0  0
   57.5910   39.5780   -9.5900 C   0  0  2  0  0  0  0  0  0  0  0  0
   56.2160   39.6450  -10.2440 C   0  0  0  0  0  0  0  0  0  0  0  0
   55.3450   40.4030   -9.8070 O   0  0  0  0  0  0  0  0  0  0  0  0
   57.4750   39.4790   -8.0730 C   0  0  0  0  0  0  0  0  0  0  0  0
   58.8040   39.4840   -7.3460 C   0  0  0  0  0  0  0  0  0  0  0  0
   58.5950   39.5700   -5.8460 C   0  0  0  0  0  0  0  0  0  0  0  0
   59.8550   39.4820   -5.1150 N   0  0  0  0  0  0  0  0  0  0  0  0
   59.9450   39.4110   -3.7910 C   0  0  0  0  0  0  0  0  0  0  0  0
   58.8440   39.4150   -3.0490 N   0  0  0  0  0  0  0  0  0  0  0  0
   61.1330   39.3340   -3.2080 N   0  0  0  0  0  0  0  0  0  0  0  0
   55.5100   21.1460   -0.5150 N   0  0  0  0  0  0  0  0  0  0  0  0
   55.0130   22.0130   -1.5830 C   0  0  2  0  0  0  0  0  0  0  0  0
   53.5010   21.9130   -1.7740 C   0  0  0  0  0  0  0  0  0  0  0  0
   52.9920   22.1520   -2.8760 O   0  0  0  0  0  0  0  0  0  0  0  0
   55.7340   21.7220   -2.9030 C   0  0  0  0  0  0  0  0  0  0  0  0
   57.2040   22.0910   -2.8560 C   0  0  0  0  0  0  0  0  0  0  0  0
   57.5920   23.0640   -2.2070 O   0  0  0  0  0  0  0  0  0  0  0  0
   58.0330   21.3090   -3.5370 N   0  0  0  0  0  0  0  0  0  0  0  0
  2  1  1  6
  3  2  1  0
  4  3  2  0
  5  2  1  0
  6  5  1  0
  7  6  1  0
  8  7  1  0
  9  8  1  0
 10  9  1  0
 11  9  2  0
 13 12  1  1
 14 13  1  0
 15 14  2  0
 16 13  1  0
 17 16  1  0
 18 17  2  0
 19 17  1  0
 21 20  1  6
 22 21  1  0
 23 22  2  0
 24 21  1  0
 25 24  1  0
 26 25  1  0
 27 25  1  0
 28 22  1  0
 29 28  1  0
 30 29  1  0
 31 30  2  0
 29 32  1  1
 33 32  1  0
 34 30  1  0
 35 34  1  0
 36 35  1  0
 37 36  2  0
 35 38  1  1
 39 38  1  0
 40 39  1  0
 41 39  1  0
 42 36  1  0
 43 42  1  6
 44 43  1  0
 45 44  2  0
 46 43  1  0
 47 46  1  0
 46 48  1  6
 50 49  1  1
 51 50  1  0
 52 51  2  0
 53 50  1  0
 54 53  1  0
 55 54  1  0
 56 55  1  0
 57 56  1  0
 59 58  1  0
 60 59  1  0
 61 60  2  0
 62 60  1  0
 63 62  1  0
 64 63  1  0
 65 64  2  0
 63 66  1  1
 67 66  1  0
 68 64  1  0
 69 68  1  0
 70 69  1  0
 71 70  2  0
 69 72  1  1
 73 72  1  0
 74 73  1  0
 75 73  1  0
 76 70  1  0
 77 76  1  1
 78 77  1  0
 79 78  2  0
 80 77  1  0
 81 80  1  0
 80 82  1  6
 83 81  1  0
 84 78  1  0
 85 84  1  0
 86 85  1  0
 87 86  2  0
 88 86  1  0
 89 88  1  0
 90 89  1  0
 91 90  2  0
 89 92  1  1
 93 92  1  0
 94 93  2  0
 95 93  1  0
 96 94  1  0
 97 95  2  0
 97 96  1  0
 98 95  1  0
 99 97  1  0
100 98  2  0
101100  1  0
101 99  2  0
102 90  1  0
103102  1  0
104103  1  0
105104  2  0
103106  1  6
107106  1  0
108107  1  0
109108  1  0
110109  1  0
111110  1  0
112110  2  0
113104  1  0
114113  1  0
115114  1  0
116115  2  0
114117  1  1
118117  1  0
119118  2  0
120118  1  0
122121  1  1
123122  1  0
124123  2  0
125122  1  0
126125  1  0
127126  1  0
128127  1  0
129128  1  0
130129  1  0
131129  2  0
133132  1  1
134133  1  0
135134  2  0
136133  1  0
137136  1  0
138137  2  0
139137  1  0
M  END
$$$$
