
     RDKit          3D

145144  0  0  0  0  0  0  0  0999 V2000
   57.6520   27.3680   23.0640 N   0  0  0  0  0  0  0  0  0  0  0  0
   57.7710   26.2490   22.1350 C   0  0  2  0  0  0  0  0  0  0  0  0
   59.1420   26.2000   21.4700 C   0  0  0  0  0  0  0  0  0  0  0  0
   59.6440   25.1120   21.1660 O   0  0  0  0  0  0  0  0  0  0  0  0
   56.6620   26.3350   21.0880 C   0  0  0  0  0  0  0  0  0  0  0  0
   55.2750   26.1320   21.6740 C   0  0  0  0  0  0  0  0  0  0  0  0
   54.1820   26.4300   20.6580 C   0  0  0  0  0  0  0  0  0  0  0  0
   52.7990   26.2670   21.2740 C   0  0  0  0  0  0  0  0  0  0  0  0
   51.7310   26.7520   20.3610 N   0  0  0  0  0  0  0  0  0  0  0  0
   61.5240   23.1330   22.8510 N   0  0  0  0  0  0  0  0  0  0  0  0
   61.4670   21.9800   21.9640 C   0  0  2  0  0  0  0  0  0  0  0  0
   62.2280   22.1920   20.6600 C   0  0  0  0  0  0  0  0  0  0  0  0
   62.1330   21.3460   19.7630 O   0  0  0  0  0  0  0  0  0  0  0  0
   60.0040   21.6190   21.6620 C   0  0  0  0  0  0  0  0  0  0  0  0
   59.1340   21.4970   22.8990 C   0  0  0  0  0  0  0  0  0  0  0  0
   57.9040   22.1310   22.9740 C   0  0  0  0  0  0  0  0  0  0  0  0
   59.5510   20.7570   23.9950 C   0  0  0  0  0  0  0  0  0  0  0  0
   57.1120   22.0240   24.1010 C   0  0  0  0  0  0  0  0  0  0  0  0
   58.7670   20.6470   25.1270 C   0  0  0  0  0  0  0  0  0  0  0  0
   57.5480   21.2800   25.1760 C   0  0  0  0  0  0  0  0  0  0  0  0
   56.7690   21.1690   26.3070 O   0  0  0  0  0  0  0  0  0  0  0  0
   59.1840   22.1440   15.9820 N   0  0  0  0  0  0  0  0  0  0  0  0
   58.7340   21.0010   16.7660 C   0  0  2  0  0  0  0  0  0  0  0  0
   57.7060   21.4680   17.7910 C   0  0  0  0  0  0  0  0  0  0  0  0
   58.0290   22.2530   18.6910 O   0  0  0  0  0  0  0  0  0  0  0  0
   59.9040   20.3060   17.4590 C   0  0  0  0  0  0  0  0  0  0  0  0
   59.5230   18.9830   18.1110 C   0  0  0  0  0  0  0  0  0  0  0  0
   60.7490   18.2430   18.6180 C   0  0  0  0  0  0  0  0  0  0  0  0
   61.6980   17.9580   17.5430 N   0  0  0  0  0  0  0  0  0  0  0  0
   61.6660   16.8650   16.7880 C   0  0  0  0  0  0  0  0  0  0  0  0
   60.7310   15.9430   16.9770 N   0  0  0  0  0  0  0  0  0  0  0  0
   62.5680   16.6950   15.8360 N   0  0  0  0  0  0  0  0  0  0  0  0
   56.4740   20.9840   17.6530 N   0  0  0  0  0  0  0  0  0  0  0  0
   55.4040   21.3830   18.5530 C   0  0  2  0  0  0  0  0  0  0  0  0
   55.2390   20.4170   19.7160 C   0  0  0  0  0  0  0  0  0  0  0  0
   54.9990   20.8510   20.8480 O   0  0  0  0  0  0  0  0  0  0  0  0
   54.0900   21.5010   17.7770 C   0  0  0  0  0  0  0  0  0  0  0  0
   52.8060   21.7060   18.5790 C   0  0  0  0  0  0  0  0  0  0  0  0
   52.8240   23.0370   19.3060 C   0  0  0  0  0  0  0  0  0  0  0  0
   51.6120   21.6150   17.6560 C   0  0  0  0  0  0  0  0  0  0  0  0
   55.3700   19.1180   19.4670 N   0  0  0  0  0  0  0  0  0  0  0  0
   55.1490   18.0930   20.4780 C   0  0  2  0  0  0  0  0  0  0  0  0
   56.4750   17.4670   20.8910 C   0  0  0  0  0  0  0  0  0  0  0  0
   57.2740   17.0710   20.0360 O   0  0  0  0  0  0  0  0  0  0  0  0
   54.1940   17.0120   19.9650 C   0  0  0  0  0  0  0  0  0  0  0  0
   52.8140   17.5180   19.6420 C   0  0  0  0  0  0  0  0  0  0  0  0
   51.9050   17.7760   20.6520 C   0  0  0  0  0  0  0  0  0  0  0  0
   52.4200   17.7120   18.3280 C   0  0  0  0  0  0  0  0  0  0  0  0
   50.6330   18.2340   20.3600 C   0  0  0  0  0  0  0  0  0  0  0  0
   51.1490   18.1700   18.0270 C   0  0  0  0  0  0  0  0  0  0  0  0
   50.2530   18.4320   19.0430 C   0  0  0  0  0  0  0  0  0  0  0  0
   56.7000   17.3770   22.1990 N   0  0  0  0  0  0  0  0  0  0  0  0
   57.8980   16.7400   22.7260 C   0  0  2  0  0  0  0  0  0  0  0  0
   57.6380   16.3460   24.1720 C   0  0  0  0  0  0  0  0  0  0  0  0
   56.9200   17.0400   24.8960 O   0  0  0  0  0  0  0  0  0  0  0  0
   59.1150   17.6640   22.6210 C   0  0  0  0  0  0  0  0  0  0  0  0
   60.4440   16.9520   22.7370 C   0  0  0  0  0  0  0  0  0  0  0  0
   61.5990   17.9140   22.5540 C   0  0  0  0  0  0  0  0  0  0  0  0
   62.8580   17.2060   22.3400 N   0  0  0  0  0  0  0  0  0  0  0  0
   63.5980   16.6800   23.3100 C   0  0  0  0  0  0  0  0  0  0  0  0
   63.2070   16.7750   24.5740 N   0  0  0  0  0  0  0  0  0  0  0  0
   64.7310   16.0570   23.0160 N   0  0  0  0  0  0  0  0  0  0  0  0
   58.2250   15.2210   24.5850 N   0  0  0  0  0  0  0  0  0  0  0  0
   57.9640   14.6960   25.9200 C   0  0  2  0  0  0  0  0  0  0  0  0
   58.6970   15.4560   27.0180 C   0  0  0  0  0  0  0  0  0  0  0  0
   58.2940   15.3660   28.1810 O   0  0  0  0  0  0  0  0  0  0  0  0
   58.3390   13.2120   25.9930 C   0  0  0  0  0  0  0  0  0  0  0  0
   57.1750   12.2560   25.7610 C   0  0  0  0  0  0  0  0  0  0  0  0
   57.6190   10.7980   25.8490 C   0  0  0  0  0  0  0  0  0  0  0  0
   58.4550   10.3860   24.6430 C   0  0  0  0  0  0  0  0  0  0  0  0
   58.6550    8.9090   24.5820 N   0  0  0  0  0  0  0  0  0  0  0  0
   53.9860   11.3690   17.7640 N   0  0  0  0  0  0  0  0  0  0  0  0
   53.9290   11.7120   19.1800 C   0  0  2  0  0  0  0  0  0  0  0  0
   52.7000   11.0870   19.8290 C   0  0  0  0  0  0  0  0  0  0  0  0
   51.5710   11.3220   19.3880 O   0  0  0  0  0  0  0  0  0  0  0  0
   53.9130   13.2270   19.3480 C   0  0  0  0  0  0  0  0  0  0  0  0
   53.9370   13.6950   20.7830 C   0  0  0  0  0  0  0  0  0  0  0  0
   55.1360   13.9010   21.4460 C   0  0  0  0  0  0  0  0  0  0  0  0
   52.7610   13.9430   21.4690 C   0  0  0  0  0  0  0  0  0  0  0  0
   55.1620   14.3360   22.7540 C   0  0  0  0  0  0  0  0  0  0  0  0
   52.7750   14.3780   22.7760 C   0  0  0  0  0  0  0  0  0  0  0  0
   53.9790   14.5730   23.4150 C   0  0  0  0  0  0  0  0  0  0  0  0
   53.9940   15.0050   24.7220 O   0  0  0  0  0  0  0  0  0  0  0  0
   52.9200   10.3110   20.8880 N   0  0  0  0  0  0  0  0  0  0  0  0
   51.8440    9.6190   21.5990 C   0  0  2  0  0  0  0  0  0  0  0  0
   51.2980   10.5390   22.6840 C   0  0  0  0  0  0  0  0  0  0  0  0
   51.8890   10.6780   23.7580 O   0  0  0  0  0  0  0  0  0  0  0  0
   52.3450    8.3000   22.1760 C   0  0  0  0  0  0  0  0  0  0  0  0
   51.3560    7.6110   23.1010 C   0  0  0  0  0  0  0  0  0  0  0  0
   51.8770    6.2940   23.6380 C   0  0  0  0  0  0  0  0  0  0  0  0
   52.8530    5.7440   23.1270 O   0  0  0  0  0  0  0  0  0  0  0  0
   51.2300    5.7820   24.6760 N   0  0  0  0  0  0  0  0  0  0  0  0
   50.1570   11.1640   22.4050 N   0  0  0  0  0  0  0  0  0  0  0  0
   49.5240   12.0970   23.3260 C   0  0  2  0  0  0  0  0  0  0  0  0
   48.4860   11.4380   24.2230 C   0  0  0  0  0  0  0  0  0  0  0  0
   47.9260   12.1090   25.0960 O   0  0  0  0  0  0  0  0  0  0  0  0
   48.8750   13.2430   22.5460 C   0  0  0  0  0  0  0  0  0  0  0  0
   48.2150   10.1500   24.0290 N   0  0  0  0  0  0  0  0  0  0  0  0
   47.2710    9.4390   24.8670 C   0  0  0  0  0  0  0  0  0  0  0  0
   47.8610    8.1830   25.4720 C   0  0  0  0  0  0  0  0  0  0  0  0
   49.0850    8.0300   25.5340 O   0  0  0  0  0  0  0  0  0  0  0  0
   47.0000    7.2700   25.9110 N   0  0  0  0  0  0  0  0  0  0  0  0
   47.4310    6.0350   26.5520 C   0  0  2  0  0  0  0  0  0  0  0  0
   47.6140    4.8780   25.5740 C   0  0  0  0  0  0  0  0  0  0  0  0
   47.9720    3.7790   26.0050 O   0  0  0  0  0  0  0  0  0  0  0  0
   46.4290    5.6430   27.6420 C   0  0  0  0  0  0  0  0  0  0  0  0
   45.0950    5.7730   27.1770 O   0  0  0  0  0  0  0  0  0  0  0  0
   47.3900    5.0970   24.2790 N   0  0  0  0  0  0  0  0  0  0  0  0
   47.4820    4.1230   23.1970 C   0  0  2  0  0  0  0  0  0  0  0  0
   48.7710    4.3090   22.4040 C   0  0  0  0  0  0  0  0  0  0  0  0
   49.1450    5.4440   22.0900 O   0  0  0  0  0  0  0  0  0  0  0  0
   46.2840    4.2580   22.2510 C   0  0  2  0  0  0  0  0  0  0  0  0
   45.0800    3.9290   22.9540 O   0  0  0  0  0  0  0  0  0  0  0  0
   46.4300    3.3480   21.0390 C   0  0  0  0  0  0  0  0  0  0  0  0
   43.8890   10.4930   16.2260 N   0  0  0  0  0  0  0  0  0  0  0  0
   43.5670   11.0770   17.5200 C   0  0  2  0  0  0  0  0  0  0  0  0
   44.6090   10.6590   18.5500 C   0  0  0  0  0  0  0  0  0  0  0  0
   44.8750    9.4660   18.7320 O   0  0  0  0  0  0  0  0  0  0  0  0
   42.1680   10.6480   17.9630 C   0  0  0  0  0  0  0  0  0  0  0  0
   41.6780   11.3490   19.2020 C   0  0  0  0  0  0  0  0  0  0  0  0
   41.2930   12.6780   19.1550 C   0  0  0  0  0  0  0  0  0  0  0  0
   41.6010   10.6790   20.4100 C   0  0  0  0  0  0  0  0  0  0  0  0
   40.8440   13.3260   20.2910 C   0  0  0  0  0  0  0  0  0  0  0  0
   41.1510   11.3210   21.5510 C   0  0  0  0  0  0  0  0  0  0  0  0
   40.7740   12.6460   21.4910 C   0  0  0  0  0  0  0  0  0  0  0  0
   45.2140   11.6520   19.2060 N   0  0  0  0  0  0  0  0  0  0  0  0
   46.3040   11.5000   20.1690 C   0  0  2  0  0  0  0  0  0  0  0  0
   47.5860   10.9670   19.5430 C   0  0  0  0  0  0  0  0  0  0  0  0
   48.5430   10.6740   20.2690 O   0  0  0  0  0  0  0  0  0  0  0  0
   45.9050   10.6100   21.3510 C   0  0  0  0  0  0  0  0  0  0  0  0
   44.8010   11.2160   22.1820 C   0  0  0  0  0  0  0  0  0  0  0  0
   44.2990   12.2950   21.8710 O   0  0  0  0  0  0  0  0  0  0  0  0
   44.4020   10.5180   23.2400 N   0  0  0  0  0  0  0  0  0  0  0  0
   50.1780   12.2540   16.7710 N   0  0  0  0  0  0  0  0  0  0  0  0
   50.4200   13.4830   16.0330 C   0  0  2  0  0  0  0  0  0  0  0  0
   51.8520   13.5360   15.5280 C   0  0  0  0  0  0  0  0  0  0  0  0
   52.7890   13.1260   16.2220 O   0  0  0  0  0  0  0  0  0  0  0  0
   50.1110   14.7020   16.9160 C   0  0  0  0  0  0  0  0  0  0  0  0
   48.6820   14.7120   17.4160 C   0  0  0  0  0  0  0  0  0  0  0  0
   47.6190   14.5950   16.5280 C   0  0  0  0  0  0  0  0  0  0  0  0
   48.3950   14.8010   18.7720 C   0  0  0  0  0  0  0  0  0  0  0  0
   46.3150   14.5890   16.9710 C   0  0  0  0  0  0  0  0  0  0  0  0
   47.0850   14.7970   19.2270 C   0  0  0  0  0  0  0  0  0  0  0  0
   46.0520   14.6900   18.3190 C   0  0  0  0  0  0  0  0  0  0  0  0
   44.7470   14.6820   18.7510 O   0  0  0  0  0  0  0  0  0  0  0  0
  2  1  1  1
  3  2  1  0
  4  3  2  0
  5  2  1  0
  6  5  1  0
  7  6  1  0
  8  7  1  0
  9  8  1  0
 11 10  1  1
 12 11  1  0
 13 12  2  0
 14 11  1  0
 15 14  1  0
 16 15  2  0
 17 15  1  0
 18 16  1  0
 19 17  2  0
 20 19  1  0
 20 18  2  0
 21 20  1  0
 23 22  1  1
 24 23  1  0
 25 24  2  0
 26 23  1  0
 27 26  1  0
 28 27  1  0
 29 28  1  0
 30 29  1  0
 31 30  1  0
 32 30  2  0
 33 24  1  0
 34 33  1  0
 35 34  1  0
 36 35  2  0
 34 37  1  6
 38 37  1  0
 39 38  1  0
 40 38  1  0
 41 35  1  0
 42 41  1  0
 43 42  1  0
 44 43  2  0
 42 45  1  6
 46 45  1  0
 47 46  2  0
 48 46  1  0
 49 47  1  0
 50 48  2  0
 51 50  1  0
 51 49  2  0
 52 43  1  0
 53 52  1  0
 54 53  1  0
 55 54  2  0
 53 56  1  1
 57 56  1  0
 58 57  1  0
 59 58  1  0
 60 59  1  0
 61 60  1  0
 62 60  2  0
 63 54  1  0
 64 63  1  0
 65 64  1  0
 66 65  2  0
 64 67  1  6
 68 67  1  0
 69 68  1  0
 70 69  1  0
 71 70  1  0
 73 72  1  6
 74 73  1  0
 75 74  2  0
 76 73  1  0
 77 76  1  0
 78 77  2  0
 79 77  1  0
 80 78  1  0
 81 79  2  0
 82 81  1  0
 82 80  2  0
 83 82  1  0
 84 74  1  0
 85 84  1  0
 86 85  1  0
 87 86  2  0
 85 88  1  1
 89 88  1  0
 90 89  1  0
 91 90  2  0
 92 90  1  0
 93 86  1  0
 94 93  1  0
 95 94  1  0
 96 95  2  0
 94 97  1  6
 98 95  1  0
 99 98  1  0
100 99  1  0
101100  2  0
102100  1  0
103102  1  0
104103  1  0
105104  2  0
103106  1  1
107106  1  0
108104  1  0
109108  1  1
110109  1  0
111110  2  0
112109  1  0
113112  1  0
112114  1  6
116115  1  6
117116  1  0
118117  2  0
119116  1  0
120119  1  0
121120  2  0
122120  1  0
123121  1  0
124122  2  0
125124  1  0
125123  2  0
126117  1  0
127126  1  0
128127  1  0
129128  2  0
127130  1  1
131130  1  0
132131  2  0
133131  1  0
135134  1  1
136135  1  0
137136  2  0
138135  1  0
139138  1  0
140139  2  0
141139  1  0
142140  1  0
143141  2  0
144143  1  0
144142  2  0
145144  1  0
M  END
$$$$
