
     RDKit          3D

145144  0  0  0  0  0  0  0  0999 V2000
  -10.7200   18.3680  -54.9050 N   0  0  0  0  0  0  0  0  0  0  0  0
  -11.3390   17.0910  -54.5720 C   0  0  2  0  0  0  0  0  0  0  0  0
  -12.4290   16.6810  -55.5560 C   0  0  0  0  0  0  0  0  0  0  0  0
  -12.7130   15.4850  -55.6800 O   0  0  0  0  0  0  0  0  0  0  0  0
  -11.8950   17.1530  -53.1490 C   0  0  0  0  0  0  0  0  0  0  0  0
  -10.8240   17.4460  -52.1120 C   0  0  0  0  0  0  0  0  0  0  0  0
  -11.2790   17.1000  -50.7090 C   0  0  0  0  0  0  0  0  0  0  0  0
  -12.1360   18.2030  -50.1140 C   0  0  0  0  0  0  0  0  0  0  0  0
  -11.3140   19.3760  -49.6950 N   0  0  0  0  0  0  0  0  0  0  0  0
  -11.1250   13.5870  -57.8540 N   0  0  0  0  0  0  0  0  0  0  0  0
  -11.7300   12.3590  -57.3680 C   0  0  2  0  0  0  0  0  0  0  0  0
  -13.2110   12.1920  -57.6900 C   0  0  0  0  0  0  0  0  0  0  0  0
  -13.7950   11.1820  -57.2790 O   0  0  0  0  0  0  0  0  0  0  0  0
  -11.5500   12.2540  -55.8470 C   0  0  0  0  0  0  0  0  0  0  0  0
  -10.1400   12.4850  -55.3430 C   0  0  0  0  0  0  0  0  0  0  0  0
   -9.9100   13.2140  -54.1810 C   0  0  0  0  0  0  0  0  0  0  0  0
   -9.0440   11.9760  -56.0250 C   0  0  0  0  0  0  0  0  0  0  0  0
   -8.6270   13.4300  -53.7180 C   0  0  0  0  0  0  0  0  0  0  0  0
   -7.7580   12.1910  -55.5730 C   0  0  0  0  0  0  0  0  0  0  0  0
   -7.5530   12.9160  -54.4180 C   0  0  0  0  0  0  0  0  0  0  0  0
   -6.2710   13.1300  -53.9580 O   0  0  0  0  0  0  0  0  0  0  0  0
  -16.8400   11.7440  -53.2820 N   0  0  0  0  0  0  0  0  0  0  0  0
  -15.7050   10.9090  -52.9120 C   0  0  2  0  0  0  0  0  0  0  0  0
  -14.6350   11.7840  -52.2720 C   0  0  0  0  0  0  0  0  0  0  0  0
  -14.1770   12.7590  -52.8780 O   0  0  0  0  0  0  0  0  0  0  0  0
  -15.1470   10.1720  -54.1280 C   0  0  0  0  0  0  0  0  0  0  0  0
  -14.0790    9.1450  -53.7770 C   0  0  0  0  0  0  0  0  0  0  0  0
  -13.7500    8.2290  -54.9450 C   0  0  0  0  0  0  0  0  0  0  0  0
  -14.9230    7.5190  -55.4460 N   0  0  0  0  0  0  0  0  0  0  0  0
  -15.4110    6.4050  -54.9090 C   0  0  0  0  0  0  0  0  0  0  0  0
  -14.8310    5.8730  -53.8420 N   0  0  0  0  0  0  0  0  0  0  0  0
  -16.4840    5.8260  -55.4360 N   0  0  0  0  0  0  0  0  0  0  0  0
  -14.2490   11.4440  -51.0420 N   0  0  0  0  0  0  0  0  0  0  0  0
  -13.2040   12.1660  -50.3300 C   0  0  2  0  0  0  0  0  0  0  0  0
  -11.8480   11.4770  -50.3830 C   0  0  0  0  0  0  0  0  0  0  0  0
  -10.8210   12.1560  -50.2890 O   0  0  0  0  0  0  0  0  0  0  0  0
  -13.6010   12.3680  -48.8630 C   0  0  0  0  0  0  0  0  0  0  0  0
  -12.6770   13.2760  -48.0470 C   0  0  0  0  0  0  0  0  0  0  0  0
  -12.7500   14.7030  -48.5630 C   0  0  0  0  0  0  0  0  0  0  0  0
  -13.0120   13.2170  -46.5660 C   0  0  0  0  0  0  0  0  0  0  0  0
  -11.8110   10.1540  -50.5350 N   0  0  0  0  0  0  0  0  0  0  0  0
  -10.5630    9.3980  -50.5270 C   0  0  2  0  0  0  0  0  0  0  0  0
  -10.4350    8.5950  -51.8150 C   0  0  0  0  0  0  0  0  0  0  0  0
  -11.3250    7.8060  -52.1540 O   0  0  0  0  0  0  0  0  0  0  0  0
  -10.4920    8.4680  -49.3150 C   0  0  0  0  0  0  0  0  0  0  0  0
  -10.4420    9.1870  -47.9980 C   0  0  0  0  0  0  0  0  0  0  0  0
   -9.2570    9.7430  -47.5390 C   0  0  0  0  0  0  0  0  0  0  0  0
  -11.5800    9.3010  -47.2130 C   0  0  0  0  0  0  0  0  0  0  0  0
   -9.2070   10.4020  -46.3200 C   0  0  0  0  0  0  0  0  0  0  0  0
  -11.5370    9.9580  -45.9940 C   0  0  0  0  0  0  0  0  0  0  0  0
  -10.3460   10.5080  -45.5470 C   0  0  0  0  0  0  0  0  0  0  0  0
   -9.3300    8.8030  -52.5280 N   0  0  0  0  0  0  0  0  0  0  0  0
   -8.9480    7.9790  -53.6660 C   0  0  2  0  0  0  0  0  0  0  0  0
   -7.4350    8.0440  -53.7930 C   0  0  0  0  0  0  0  0  0  0  0  0
   -6.8380    9.1090  -53.6170 O   0  0  0  0  0  0  0  0  0  0  0  0
   -9.6190    8.4400  -54.9660 C   0  0  0  0  0  0  0  0  0  0  0  0
   -9.7230    7.3510  -56.0280 C   0  0  0  0  0  0  0  0  0  0  0  0
  -10.6880    7.7440  -57.1390 C   0  0  0  0  0  0  0  0  0  0  0  0
  -11.0120    6.6190  -58.0140 N   0  0  0  0  0  0  0  0  0  0  0  0
  -10.3460    6.3220  -59.1260 C   0  0  0  0  0  0  0  0  0  0  0  0
   -9.3150    7.0680  -59.5030 N   0  0  0  0  0  0  0  0  0  0  0  0
  -10.7100    5.2800  -59.8640 N   0  0  0  0  0  0  0  0  0  0  0  0
   -6.8180    6.9020  -54.0910 N   0  0  0  0  0  0  0  0  0  0  0  0
   -5.3630    6.8480  -54.1620 C   0  0  2  0  0  0  0  0  0  0  0  0
   -4.7970    7.4290  -55.4530 C   0  0  0  0  0  0  0  0  0  0  0  0
   -3.5910    7.6840  -55.5150 O   0  0  0  0  0  0  0  0  0  0  0  0
   -4.8800    5.4050  -53.9860 C   0  0  0  0  0  0  0  0  0  0  0  0
   -5.5980    4.3840  -54.8500 C   0  0  0  0  0  0  0  0  0  0  0  0
   -5.0120    2.9940  -54.6470 C   0  0  0  0  0  0  0  0  0  0  0  0
   -5.5830    2.3370  -53.3930 C   0  0  0  0  0  0  0  0  0  0  0  0
   -5.1410    0.9210  -53.2420 N   0  0  0  0  0  0  0  0  0  0  0  0
  -11.3730    2.9130  -47.4430 N   0  0  0  0  0  0  0  0  0  0  0  0
  -10.0470    3.3880  -47.8040 C   0  0  2  0  0  0  0  0  0  0  0  0
   -9.0420    2.9860  -46.7310 C   0  0  0  0  0  0  0  0  0  0  0  0
   -9.2340    3.2930  -45.5490 O   0  0  0  0  0  0  0  0  0  0  0  0
  -10.0810    4.9010  -47.9850 C   0  0  0  0  0  0  0  0  0  0  0  0
   -8.8840    5.4590  -48.6950 C   0  0  0  0  0  0  0  0  0  0  0  0
   -8.7190    5.2840  -50.0620 C   0  0  0  0  0  0  0  0  0  0  0  0
   -7.9210    6.1720  -48.0000 C   0  0  0  0  0  0  0  0  0  0  0  0
   -7.6190    5.8020  -50.7150 C   0  0  0  0  0  0  0  0  0  0  0  0
   -6.8250    6.6920  -48.6400 C   0  0  0  0  0  0  0  0  0  0  0  0
   -6.6750    6.5060  -49.9970 C   0  0  0  0  0  0  0  0  0  0  0  0
   -5.5740    7.0290  -50.6340 O   0  0  0  0  0  0  0  0  0  0  0  0
   -7.9760    2.3010  -47.1430 N   0  0  0  0  0  0  0  0  0  0  0  0
   -6.9110    1.8860  -46.2300 C   0  0  2  0  0  0  0  0  0  0  0  0
   -5.8890    3.0140  -46.1520 C   0  0  0  0  0  0  0  0  0  0  0  0
   -5.1060    3.2260  -47.0800 O   0  0  0  0  0  0  0  0  0  0  0  0
   -6.2720    0.5820  -46.6950 C   0  0  0  0  0  0  0  0  0  0  0  0
   -5.0590    0.1610  -45.8800 C   0  0  0  0  0  0  0  0  0  0  0  0
   -4.5110   -1.1930  -46.2920 C   0  0  0  0  0  0  0  0  0  0  0  0
   -5.2420   -2.0440  -46.7990 O   0  0  0  0  0  0  0  0  0  0  0  0
   -3.2190   -1.4020  -46.0670 N   0  0  0  0  0  0  0  0  0  0  0  0
   -5.9010    3.7450  -45.0410 N   0  0  0  0  0  0  0  0  0  0  0  0
   -4.9750    4.8470  -44.8210 C   0  0  2  0  0  0  0  0  0  0  0  0
   -3.7230    4.4350  -44.0560 C   0  0  0  0  0  0  0  0  0  0  0  0
   -2.7560    5.2070  -44.0250 O   0  0  0  0  0  0  0  0  0  0  0  0
   -5.6810    5.9870  -44.0780 C   0  0  0  0  0  0  0  0  0  0  0  0
   -3.7220    3.2530  -43.4350 N   0  0  0  0  0  0  0  0  0  0  0  0
   -2.5680    2.7310  -42.7580 C   0  0  0  0  0  0  0  0  0  0  0  0
   -1.9910    1.5150  -43.4570 C   0  0  0  0  0  0  0  0  0  0  0  0
   -2.3060    1.2150  -44.6130 O   0  0  0  0  0  0  0  0  0  0  0  0
   -1.1230    0.8040  -42.7360 N   0  0  0  0  0  0  0  0  0  0  0  0
   -0.5440   -0.4290  -43.2600 C   0  0  2  0  0  0  0  0  0  0  0  0
   -1.2910   -1.6750  -42.8020 C   0  0  0  0  0  0  0  0  0  0  0  0
   -1.1980   -2.7120  -43.4650 O   0  0  0  0  0  0  0  0  0  0  0  0
    0.9350   -0.5410  -42.8600 C   0  0  0  0  0  0  0  0  0  0  0  0
    1.0880   -0.6200  -41.4560 O   0  0  0  0  0  0  0  0  0  0  0  0
   -2.0170   -1.5950  -41.6930 N   0  0  0  0  0  0  0  0  0  0  0  0
   -2.9900   -2.6150  -41.3280 C   0  0  2  0  0  0  0  0  0  0  0  0
   -4.1030   -2.7070  -42.3690 C   0  0  0  0  0  0  0  0  0  0  0  0
   -4.7700   -1.6940  -42.6470 O   0  0  0  0  0  0  0  0  0  0  0  0
   -3.5860   -2.3180  -39.9490 C   0  0  2  0  0  0  0  0  0  0  0  0
   -2.5860   -2.4860  -38.9350 O   0  0  0  0  0  0  0  0  0  0  0  0
   -4.8090   -3.1820  -39.6680 C   0  0  0  0  0  0  0  0  0  0  0  0
  -10.3720    2.9940  -37.5350 N   0  0  0  0  0  0  0  0  0  0  0  0
   -9.2870    3.9650  -37.5450 C   0  0  2  0  0  0  0  0  0  0  0  0
   -8.3000    3.6500  -38.6640 C   0  0  0  0  0  0  0  0  0  0  0  0
   -7.8520    2.5060  -38.8040 O   0  0  0  0  0  0  0  0  0  0  0  0
   -8.5690    3.9780  -36.1970 C   0  0  0  0  0  0  0  0  0  0  0  0
   -7.2510    4.6980  -36.2220 C   0  0  0  0  0  0  0  0  0  0  0  0
   -7.2040    6.0830  -36.2640 C   0  0  0  0  0  0  0  0  0  0  0  0
   -6.0580    3.9910  -36.2080 C   0  0  0  0  0  0  0  0  0  0  0  0
   -5.9910    6.7500  -36.2890 C   0  0  0  0  0  0  0  0  0  0  0  0
   -4.8400    4.6520  -36.2340 C   0  0  0  0  0  0  0  0  0  0  0  0
   -4.8060    6.0330  -36.2740 C   0  0  0  0  0  0  0  0  0  0  0  0
   -7.9520    4.6740  -39.4480 N   0  0  0  0  0  0  0  0  0  0  0  0
   -7.1640    4.5400  -40.6760 C   0  0  2  0  0  0  0  0  0  0  0  0
   -7.8450    3.6390  -41.7000 C   0  0  0  0  0  0  0  0  0  0  0  0
   -7.1830    3.0720  -42.5760 O   0  0  0  0  0  0  0  0  0  0  0  0
   -5.7460    4.0390  -40.3850 C   0  0  0  0  0  0  0  0  0  0  0  0
   -4.7820    5.1670  -40.1160 C   0  0  0  0  0  0  0  0  0  0  0  0
   -5.0360    6.3140  -40.4810 O   0  0  0  0  0  0  0  0  0  0  0  0
   -3.6740    4.8520  -39.4560 N   0  0  0  0  0  0  0  0  0  0  0  0
  -11.3130    4.3250  -43.5760 N   0  0  0  0  0  0  0  0  0  0  0  0
  -12.3860    5.3020  -43.6900 C   0  0  2  0  0  0  0  0  0  0  0  0
  -13.2890    5.0160  -44.8830 C   0  0  0  0  0  0  0  0  0  0  0  0
  -12.8290    4.5840  -45.9440 O   0  0  0  0  0  0  0  0  0  0  0  0
  -11.8140    6.7170  -43.8020 C   0  0  0  0  0  0  0  0  0  0  0  0
  -10.8580    7.0580  -42.6850 C   0  0  0  0  0  0  0  0  0  0  0  0
  -11.3170    7.2420  -41.3880 C   0  0  0  0  0  0  0  0  0  0  0  0
   -9.4930    7.1790  -42.9230 C   0  0  0  0  0  0  0  0  0  0  0  0
  -10.4470    7.5480  -40.3590 C   0  0  0  0  0  0  0  0  0  0  0  0
   -8.6150    7.4850  -41.9000 C   0  0  0  0  0  0  0  0  0  0  0  0
   -9.0970    7.6670  -40.6210 C   0  0  0  0  0  0  0  0  0  0  0  0
   -8.2300    7.9710  -39.5970 O   0  0  0  0  0  0  0  0  0  0  0  0
  2  1  1  6
  3  2  1  0
  4  3  2  0
  5  2  1  0
  6  5  1  0
  7  6  1  0
  8  7  1  0
  9  8  1  0
 11 10  1  1
 12 11  1  0
 13 12  2  0
 14 11  1  0
 15 14  1  0
 16 15  2  0
 17 15  1  0
 18 16  1  0
 19 17  2  0
 20 19  1  0
 20 18  2  0
 21 20  1  0
 23 22  1  6
 24 23  1  0
 25 24  2  0
 26 23  1  0
 27 26  1  0
 28 27  1  0
 29 28  1  0
 30 29  1  0
 31 30  1  0
 32 30  2  0
 33 24  1  0
 34 33  1  0
 35 34  1  0
 36 35  2  0
 34 37  1  1
 38 37  1  0
 39 38  1  0
 40 38  1  0
 41 35  1  0
 42 41  1  0
 43 42  1  0
 44 43  2  0
 42 45  1  1
 46 45  1  0
 47 46  2  0
 48 46  1  0
 49 47  1  0
 50 48  2  0
 51 50  1  0
 51 49  2  0
 52 43  1  0
 53 52  1  0
 54 53  1  0
 55 54  2  0
 53 56  1  6
 57 56  1  0
 58 57  1  0
 59 58  1  0
 60 59  1  0
 61 60  1  0
 62 60  2  0
 63 54  1  0
 64 63  1  0
 65 64  1  0
 66 65  2  0
 64 67  1  6
 68 67  1  0
 69 68  1  0
 70 69  1  0
 71 70  1  0
 73 72  1  1
 74 73  1  0
 75 74  2  0
 76 73  1  0
 77 76  1  0
 78 77  2  0
 79 77  1  0
 80 78  1  0
 81 79  2  0
 82 80  2  0
 82 81  1  0
 83 82  1  0
 84 74  1  0
 85 84  1  0
 86 85  1  0
 87 86  2  0
 85 88  1  6
 89 88  1  0
 90 89  1  0
 91 90  2  0
 92 90  1  0
 93 86  1  0
 94 93  1  0
 95 94  1  0
 96 95  2  0
 94 97  1  1
 98 95  1  0
 99 98  1  0
100 99  1  0
101100  2  0
102100  1  0
103102  1  0
104103  1  0
105104  2  0
103106  1  1
107106  1  0
108104  1  0
109108  1  6
110109  1  0
111110  2  0
112109  1  0
113112  1  0
112114  1  1
116115  1  1
117116  1  0
118117  2  0
119116  1  0
120119  1  0
121120  2  0
122120  1  0
123121  1  0
124122  2  0
125123  2  0
125124  1  0
126117  1  0
127126  1  0
128127  1  0
129128  2  0
127130  1  1
131130  1  0
132131  2  0
133131  1  0
135134  1  6
136135  1  0
137136  2  0
138135  1  0
139138  1  0
140139  2  0
141139  1  0
142140  1  0
143141  2  0
144143  1  0
144142  2  0
145144  1  0
M  END
$$$$
