
     RDKit          3D

128128  0  0  0  0  0  0  0  0999 V2000
  -33.5870   -7.4920  -13.0030 N   0  0  0  0  0  0  0  0  0  0  0  0
  -34.4640   -6.3310  -12.9210 C   0  0  2  0  0  0  0  0  0  0  0  0
  -33.7750   -5.1800  -12.1940 C   0  0  0  0  0  0  0  0  0  0  0  0
  -32.8830   -5.3830  -11.3670 O   0  0  0  0  0  0  0  0  0  0  0  0
  -35.7560   -6.6830  -12.1750 C   0  0  0  0  0  0  0  0  0  0  0  0
  -36.8180   -7.3950  -12.9920 C   0  0  0  0  0  0  0  0  0  0  0  0
  -37.9200   -7.9640  -12.0940 C   0  0  0  0  0  0  0  0  0  0  0  0
  -38.1390   -7.1620  -10.8890 N   0  0  0  0  0  0  0  0  0  0  0  0
  -39.1660   -7.3210  -10.0570 C   0  0  0  0  0  0  0  0  0  0  0  0
  -40.0830   -8.2480  -10.2980 N   0  0  0  0  0  0  0  0  0  0  0  0
  -39.2830   -6.5500   -8.9840 N   0  0  0  0  0  0  0  0  0  0  0  0
  -37.5630  -13.0670  -23.9440 N   0  0  0  0  0  0  0  0  0  0  0  0
  -37.6150  -14.1620  -22.9860 C   0  0  2  0  0  0  0  0  0  0  0  0
  -36.3000  -14.9330  -22.9020 C   0  0  0  0  0  0  0  0  0  0  0  0
  -36.2790  -16.0630  -22.4040 O   0  0  0  0  0  0  0  0  0  0  0  0
  -38.7770  -15.0960  -23.3270 C   0  0  0  0  0  0  0  0  0  0  0  0
  -40.1260  -14.4020  -23.2790 C   0  0  0  0  0  0  0  0  0  0  0  0
  -40.7640  -14.1630  -22.0650 C   0  0  0  0  0  0  0  0  0  0  0  0
  -40.7580  -13.9780  -24.4460 C   0  0  0  0  0  0  0  0  0  0  0  0
  -41.9940  -13.5210  -22.0120 C   0  0  0  0  0  0  0  0  0  0  0  0
  -41.9930  -13.3360  -24.4020 C   0  0  0  0  0  0  0  0  0  0  0  0
  -42.6030  -13.1110  -23.1820 C   0  0  0  0  0  0  0  0  0  0  0  0
  -43.8230  -12.4750  -23.1310 O   0  0  0  0  0  0  0  0  0  0  0  0
  -34.3220  -16.5850  -14.5460 N   0  0  0  0  0  0  0  0  0  0  0  0
  -33.9150  -16.5630  -13.1490 C   0  0  2  0  0  0  0  0  0  0  0  0
  -34.5930  -17.7280  -12.4430 C   0  0  0  0  0  0  0  0  0  0  0  0
  -35.6000  -18.2610  -12.9150 O   0  0  0  0  0  0  0  0  0  0  0  0
  -34.2680  -15.2330  -12.4640 C   0  0  0  0  0  0  0  0  0  0  0  0
  -35.7530  -14.9610  -12.3690 C   0  0  0  0  0  0  0  0  0  0  0  0
  -36.4440  -14.4070  -13.4370 C   0  0  0  0  0  0  0  0  0  0  0  0
  -36.4630  -15.2550  -11.2080 C   0  0  0  0  0  0  0  0  0  0  0  0
  -37.8000  -14.1570  -13.3620 C   0  0  0  0  0  0  0  0  0  0  0  0
  -37.8190  -15.0070  -11.1210 C   0  0  0  0  0  0  0  0  0  0  0  0
  -38.4830  -14.4580  -12.2040 C   0  0  0  0  0  0  0  0  0  0  0  0
  -39.8330  -14.2070  -12.1330 O   0  0  0  0  0  0  0  0  0  0  0  0
  -37.8080  -19.1990  -14.3220 N   0  0  0  0  0  0  0  0  0  0  0  0
  -38.7910  -18.3220  -14.9330 C   0  0  2  0  0  0  0  0  0  0  0  0
  -38.0870  -17.3420  -15.8560 C   0  0  0  0  0  0  0  0  0  0  0  0
  -36.9320  -16.9690  -15.6300 O   0  0  0  0  0  0  0  0  0  0  0  0
  -39.5880  -17.5500  -13.8760 C   0  0  0  0  0  0  0  0  0  0  0  0
  -40.5270  -18.4160  -13.0610 C   0  0  0  0  0  0  0  0  0  0  0  0
  -41.7060  -18.9080  -13.8700 C   0  0  0  0  0  0  0  0  0  0  0  0
  -41.9550  -20.1080  -13.9610 O   0  0  0  0  0  0  0  0  0  0  0  0
  -42.4430  -17.9810  -14.4600 N   0  0  0  0  0  0  0  0  0  0  0  0
  -38.7910  -16.9300  -16.9010 N   0  0  0  0  0  0  0  0  0  0  0  0
  -38.2720  -15.9350  -17.8230 C   0  0  2  0  0  0  0  0  0  0  0  0
  -38.7160  -14.5460  -17.3860 C   0  0  0  0  0  0  0  0  0  0  0  0
  -39.8910  -14.3340  -17.0670 O   0  0  0  0  0  0  0  0  0  0  0  0
  -38.7560  -16.2140  -19.2450 C   0  0  0  0  0  0  0  0  0  0  0  0
  -38.3610  -15.1710  -20.1170 O   0  0  0  0  0  0  0  0  0  0  0  0
  -37.7750  -13.6060  -17.3540 N   0  0  0  0  0  0  0  0  0  0  0  0
  -38.1670  -12.2070  -17.3730 C   0  0  2  0  0  0  0  0  0  0  0  0
  -38.9170  -11.9250  -18.6700 C   0  0  0  0  0  0  0  0  0  0  0  0
  -38.6600  -12.5400  -19.7090 O   0  0  0  0  0  0  0  0  0  0  0  0
  -36.9460  -11.2890  -17.2700 C   0  0  0  0  0  0  0  0  0  0  0  0
  -36.1850  -11.3150  -15.9580 C   0  0  0  0  0  0  0  0  0  0  0  0
  -36.7330  -10.7840  -14.7940 C   0  0  0  0  0  0  0  0  0  0  0  0
  -34.8920  -11.8270  -15.8960 C   0  0  0  0  0  0  0  0  0  0  0  0
  -36.0250  -10.7900  -13.6000 C   0  0  0  0  0  0  0  0  0  0  0  0
  -34.1790  -11.8370  -14.7110 C   0  0  0  0  0  0  0  0  0  0  0  0
  -34.7480  -11.3170  -13.5680 C   0  0  0  0  0  0  0  0  0  0  0  0
  -34.0330  -11.3280  -12.3910 O   0  0  0  0  0  0  0  0  0  0  0  0
  -39.8620  -10.9990  -18.6110 N   0  0  0  0  0  0  0  0  0  0  0  0
  -40.5750  -10.6340  -19.8200 C   0  0  0  0  0  0  0  0  0  0  0  0
  -40.2210   -9.2340  -20.2650 C   0  0  0  0  0  0  0  0  0  0  0  0
  -41.1040   -8.3870  -20.4220 O   0  0  0  0  0  0  0  0  0  0  0  0
  -38.9270   -8.9810  -20.4600 N   0  0  0  0  0  0  0  0  0  0  0  0
  -38.4400   -7.6210  -20.6420 C   0  0  2  0  0  0  0  0  0  0  0  0
  -39.0780   -6.9680  -21.8600 C   0  0  0  0  0  0  0  0  0  0  0  0
  -38.7330   -7.2800  -23.0040 O   0  0  0  0  0  0  0  0  0  0  0  0
  -36.9130   -7.6130  -20.7500 C   0  0  0  0  0  0  0  0  0  0  0  0
  -36.2130   -7.8900  -19.4470 C   0  0  0  0  0  0  0  0  0  0  0  0
  -36.6570   -7.3090  -18.2670 C   0  0  0  0  0  0  0  0  0  0  0  0
  -35.1180   -8.7400  -19.3980 C   0  0  0  0  0  0  0  0  0  0  0  0
  -36.0190   -7.5630  -17.0640 C   0  0  0  0  0  0  0  0  0  0  0  0
  -34.4730   -8.9970  -18.1990 C   0  0  0  0  0  0  0  0  0  0  0  0
  -34.9260   -8.4080  -17.0290 C   0  0  0  0  0  0  0  0  0  0  0  0
  -40.0320   -6.0760  -21.6090 N   0  0  0  0  0  0  0  0  0  0  0  0
  -40.6880   -5.2320  -22.5870 C   0  0  2  0  0  0  0  0  0  0  0  0
  -40.2660   -3.7830  -22.3860 C   0  0  0  0  0  0  0  0  0  0  0  0
  -40.0900   -3.3440  -21.2430 O   0  0  0  0  0  0  0  0  0  0  0  0
  -42.2160   -5.3340  -22.4830 C   0  0  0  0  0  0  0  0  0  0  0  0
  -42.7770   -6.6490  -22.9920 C   0  0  0  0  0  0  0  0  0  0  0  0
  -44.2580   -6.8130  -22.7050 C   0  0  0  0  0  0  0  0  0  0  0  0
  -44.6970   -7.8700  -22.2550 O   0  0  0  0  0  0  0  0  0  0  0  0
  -45.0360   -5.7680  -22.9660 N   0  0  0  0  0  0  0  0  0  0  0  0
  -41.9090   -1.1260  -22.4710 N   0  0  0  0  0  0  0  0  0  0  0  0
  -42.8850   -0.3450  -21.7190 C   0  0  2  0  0  0  0  0  0  0  0  0
  -42.8810   -0.6570  -20.2270 C   0  0  0  0  0  0  0  0  0  0  0  0
  -43.6780   -0.0670  -19.4910 O   0  0  0  0  0  0  0  0  0  0  0  0
  -44.2930   -0.5690  -22.2770 C   0  0  2  0  0  0  0  0  0  0  0  0
  -44.5780   -1.9730  -22.3210 O   0  0  0  0  0  0  0  0  0  0  0  0
  -44.4100    0.0130  -23.6790 C   0  0  0  0  0  0  0  0  0  0  0  0
  -42.0240   -1.5660  -19.7690 N   0  0  0  0  0  0  0  0  0  0  0  0
  -41.9120   -1.8490  -18.3450 C   0  0  2  0  0  0  0  0  0  0  0  0
  -41.5600   -0.5840  -17.5740 C   0  0  0  0  0  0  0  0  0  0  0  0
  -40.8410    0.2890  -18.0640 O   0  0  0  0  0  0  0  0  0  0  0  0
  -40.8370   -2.9100  -18.0940 C   0  0  0  0  0  0  0  0  0  0  0  0
  -41.3070   -4.3140  -18.4180 C   0  0  0  0  0  0  0  0  0  0  0  0
  -42.4610   -4.5300  -18.7910 O   0  0  0  0  0  0  0  0  0  0  0  0
  -40.4040   -5.2830  -18.2770 N   0  0  0  0  0  0  0  0  0  0  0  0
  -42.0780   -0.4900  -16.3520 N   0  0  0  0  0  0  0  0  0  0  0  0
  -41.5540    0.4900  -15.4210 C   0  0  0  0  0  0  0  0  0  0  0  0
  -40.0760    0.2610  -15.1710 C   0  0  0  0  0  0  0  0  0  0  0  0
  -39.5750   -0.8590  -15.2890 O   0  0  0  0  0  0  0  0  0  0  0  0
  -39.3740    1.3420  -14.8180 N   0  0  0  0  0  0  0  0  0  0  0  0
  -37.9120    1.2940  -14.7260 C   0  0  2  0  0  0  0  0  0  0  0  0
  -37.4560    0.1920  -13.7760 C   0  0  0  0  0  0  0  0  0  0  0  0
  -36.5080   -0.5450  -14.0680 O   0  0  0  0  0  0  0  0  0  0  0  0
  -37.3540    2.6660  -14.3030 C   0  0  0  0  0  0  0  0  0  0  0  0
  -35.8350    2.6470  -14.3260 C   0  0  0  0  0  0  0  0  0  0  0  0
  -37.8900    3.7570  -15.2070 C   0  0  0  0  0  0  0  0  0  0  0  0
  -38.1250    0.0590  -12.6300 N   0  0  0  0  0  0  0  0  0  0  0  0
  -37.7730   -0.9770  -11.6740 C   0  0  0  0  0  0  0  0  0  0  0  0
  -37.8780   -2.3820  -12.2300 C   0  0  0  0  0  0  0  0  0  0  0  0
  -37.2860   -3.3100  -11.6660 O   0  0  0  0  0  0  0  0  0  0  0  0
  -38.6090   -2.5600  -13.3330 N   0  0  0  0  0  0  0  0  0  0  0  0
  -38.8010   -3.8610  -13.9600 C   0  0  2  0  0  0  0  0  0  0  0  0
  -38.0520   -3.9860  -15.2810 C   0  0  0  0  0  0  0  0  0  0  0  0
  -38.2180   -4.9860  -15.9850 O   0  0  0  0  0  0  0  0  0  0  0  0
  -40.2950   -4.1250  -14.1670 C   0  0  0  0  0  0  0  0  0  0  0  0
  -41.1190   -3.9440  -12.9090 C   0  0  0  0  0  0  0  0  0  0  0  0
  -40.6290   -4.3430  -11.6710 C   0  0  0  0  0  0  0  0  0  0  0  0
  -42.3790   -3.3620  -12.9560 C   0  0  0  0  0  0  0  0  0  0  0  0
  -41.3740   -4.1770  -10.5150 C   0  0  0  0  0  0  0  0  0  0  0  0
  -43.1350   -3.1900  -11.8020 C   0  0  0  0  0  0  0  0  0  0  0  0
  -42.6260   -3.5980  -10.5880 C   0  0  0  0  0  0  0  0  0  0  0  0
  -43.3660   -3.4300   -9.4420 O   0  0  0  0  0  0  0  0  0  0  0  0
  2  1  1  1
  3  2  1  0
  4  3  2  0
  5  2  1  0
  6  5  1  0
  7  6  1  0
  8  7  1  0
  9  8  1  0
 10  9  1  0
 11  9  2  0
 13 12  1  6
 14 13  1  0
 15 14  2  0
 16 13  1  0
 17 16  1  0
 18 17  2  0
 19 17  1  0
 20 18  1  0
 21 19  2  0
 22 21  1  0
 22 20  2  0
 23 22  1  0
 25 24  1  6
 26 25  1  0
 27 26  2  0
 28 25  1  0
 29 28  1  0
 30 29  2  0
 31 29  1  0
 32 30  1  0
 33 31  2  0
 34 33  1  0
 34 32  2  0
 35 34  1  0
 37 36  1  1
 38 37  1  0
 39 38  2  0
 40 37  1  0
 41 40  1  0
 42 41  1  0
 43 42  2  0
 44 42  1  0
 45 38  1  0
 46 45  1  0
 47 46  1  0
 48 47  2  0
 46 49  1  6
 50 49  1  0
 51 47  1  0
 52 51  1  0
 53 52  1  0
 54 53  2  0
 52 55  1  6
 56 55  1  0
 57 56  2  0
 58 56  1  0
 59 57  1  0
 60 58  2  0
 61 60  1  0
 61 59  2  0
 62 61  1  0
 63 53  1  0
 64 63  1  0
 65 64  1  0
 66 65  2  0
 67 65  1  0
 68 67  1  0
 69 68  1  0
 70 69  2  0
 68 71  1  6
 72 71  1  0
 73 72  2  0
 74 72  1  0
 75 73  1  0
 76 74  2  0
 77 76  1  0
 77 75  2  0
 78 69  1  0
 79 78  1  0
 80 79  1  0
 81 80  2  0
 79 82  1  1
 83 82  1  0
 84 83  1  0
 85 84  2  0
 86 84  1  0
 88 87  1  6
 89 88  1  0
 90 89  2  0
 91 88  1  0
 92 91  1  0
 91 93  1  6
 94 89  1  0
 95 94  1  0
 96 95  1  0
 97 96  2  0
 95 98  1  6
 99 98  1  0
100 99  2  0
101 99  1  0
102 96  1  0
103102  1  0
104103  1  0
105104  2  0
106104  1  0
107106  1  1
108107  1  0
109108  2  0
110107  1  0
111110  1  0
112110  1  0
113108  1  0
114113  1  0
115114  1  0
116115  2  0
117115  1  0
118117  1  0
119118  1  0
120119  2  0
118121  1  6
122121  1  0
123122  2  0
124122  1  0
125123  1  0
126124  2  0
127126  1  0
127125  2  0
128127  1  0
M  END
$$$$
