
     RDKit          3D

145144  0  0  0  0  0  0  0  0999 V2000
  -30.0180   17.0650  -42.3170 N   0  0  0  0  0  0  0  0  0  0  0  0
  -29.2260   17.2970  -41.1150 C   0  0  2  0  0  0  0  0  0  0  0  0
  -29.3000   18.7440  -40.6420 C   0  0  0  0  0  0  0  0  0  0  0  0
  -29.1760   19.0020  -39.4390 O   0  0  0  0  0  0  0  0  0  0  0  0
  -27.7870   16.8540  -41.3650 C   0  0  0  0  0  0  0  0  0  0  0  0
  -27.7090   15.3490  -41.5700 C   0  0  0  0  0  0  0  0  0  0  0  0
  -26.2920   14.8170  -41.6020 C   0  0  0  0  0  0  0  0  0  0  0  0
  -25.5960   15.1930  -42.8950 C   0  0  0  0  0  0  0  0  0  0  0  0
  -25.0530   13.9750  -43.5640 N   0  0  0  0  0  0  0  0  0  0  0  0
  -31.5560   18.9040  -37.1720 N   0  0  0  0  0  0  0  0  0  0  0  0
  -30.6960   19.0000  -35.9990 C   0  0  2  0  0  0  0  0  0  0  0  0
  -30.0240   20.3540  -35.8310 C   0  0  0  0  0  0  0  0  0  0  0  0
  -29.2420   20.5210  -34.8870 O   0  0  0  0  0  0  0  0  0  0  0  0
  -29.6150   17.9100  -36.0440 C   0  0  0  0  0  0  0  0  0  0  0  0
  -30.1600   16.5410  -36.3590 C   0  0  0  0  0  0  0  0  0  0  0  0
  -31.3150   16.0750  -35.7440 C   0  0  0  0  0  0  0  0  0  0  0  0
  -29.5340   15.7210  -37.2850 C   0  0  0  0  0  0  0  0  0  0  0  0
  -31.8280   14.8260  -36.0370 C   0  0  0  0  0  0  0  0  0  0  0  0
  -30.0390   14.4680  -37.5850 C   0  0  0  0  0  0  0  0  0  0  0  0
  -31.1870   14.0270  -36.9580 C   0  0  0  0  0  0  0  0  0  0  0  0
  -31.6970   12.7820  -37.2460 O   0  0  0  0  0  0  0  0  0  0  0  0
  -24.4760   20.5890  -36.1480 N   0  0  0  0  0  0  0  0  0  0  0  0
  -24.7550   19.4270  -35.3210 C   0  0  2  0  0  0  0  0  0  0  0  0
  -24.9420   18.2100  -36.2130 C   0  0  0  0  0  0  0  0  0  0  0  0
  -25.7210   18.2390  -37.1720 O   0  0  0  0  0  0  0  0  0  0  0  0
  -25.9870   19.6410  -34.4430 C   0  0  0  0  0  0  0  0  0  0  0  0
  -26.1940   18.5070  -33.4330 C   0  0  0  0  0  0  0  0  0  0  0  0
  -27.3020   18.8040  -32.4320 C   0  0  0  0  0  0  0  0  0  0  0  0
  -27.0850   20.0610  -31.7210 N   0  0  0  0  0  0  0  0  0  0  0  0
  -26.2810   20.2020  -30.6730 C   0  0  0  0  0  0  0  0  0  0  0  0
  -25.6160   19.1600  -30.1970 N   0  0  0  0  0  0  0  0  0  0  0  0
  -26.1460   21.3870  -30.0960 N   0  0  0  0  0  0  0  0  0  0  0  0
  -24.2110   17.1450  -35.9010 N   0  0  0  0  0  0  0  0  0  0  0  0
  -24.3070   15.8800  -36.6120 C   0  0  2  0  0  0  0  0  0  0  0  0
  -25.1930   14.8670  -35.9000 C   0  0  0  0  0  0  0  0  0  0  0  0
  -25.9400   14.1370  -36.5560 O   0  0  0  0  0  0  0  0  0  0  0  0
  -22.9100   15.2860  -36.8040 C   0  0  0  0  0  0  0  0  0  0  0  0
  -22.7630   14.1550  -37.8180 C   0  0  0  0  0  0  0  0  0  0  0  0
  -23.5180   14.4900  -39.0920 C   0  0  0  0  0  0  0  0  0  0  0  0
  -21.2950   13.8900  -38.1090 C   0  0  0  0  0  0  0  0  0  0  0  0
  -25.1380   14.8130  -34.5720 N   0  0  0  0  0  0  0  0  0  0  0  0
  -25.8180   13.7860  -33.7920 C   0  0  2  0  0  0  0  0  0  0  0  0
  -26.8430   14.4280  -32.8730 C   0  0  0  0  0  0  0  0  0  0  0  0
  -26.4850   15.2290  -32.0020 O   0  0  0  0  0  0  0  0  0  0  0  0
  -24.8270   12.9750  -32.9570 C   0  0  0  0  0  0  0  0  0  0  0  0
  -23.8980   12.1360  -33.7650 C   0  0  0  0  0  0  0  0  0  0  0  0
  -24.3340   10.9490  -34.3320 C   0  0  0  0  0  0  0  0  0  0  0  0
  -22.5840   12.5260  -33.9550 C   0  0  0  0  0  0  0  0  0  0  0  0
  -23.4770   10.1670  -35.0780 C   0  0  0  0  0  0  0  0  0  0  0  0
  -21.7210   11.7490  -34.7000 C   0  0  0  0  0  0  0  0  0  0  0  0
  -22.1680   10.5670  -35.2630 C   0  0  0  0  0  0  0  0  0  0  0  0
  -28.1060   14.0560  -33.0480 N   0  0  0  0  0  0  0  0  0  0  0  0
  -29.1330   14.3800  -32.0730 C   0  0  2  0  0  0  0  0  0  0  0  0
  -30.1490   13.2530  -32.0850 C   0  0  0  0  0  0  0  0  0  0  0  0
  -30.5050   12.7460  -33.1520 O   0  0  0  0  0  0  0  0  0  0  0  0
  -29.8020   15.7250  -32.3630 C   0  0  0  0  0  0  0  0  0  0  0  0
  -30.1840   16.4810  -31.1060 C   0  0  0  0  0  0  0  0  0  0  0  0
  -30.9840   17.7260  -31.4190 C   0  0  0  0  0  0  0  0  0  0  0  0
  -31.3780   18.4250  -30.2010 N   0  0  0  0  0  0  0  0  0  0  0  0
  -32.6320   18.5180  -29.7740 C   0  0  0  0  0  0  0  0  0  0  0  0
  -33.6120   17.9590  -30.4710 N   0  0  0  0  0  0  0  0  0  0  0  0
  -32.9070   19.1730  -28.6540 N   0  0  0  0  0  0  0  0  0  0  0  0
  -30.5970   12.8510  -30.8950 N   0  0  0  0  0  0  0  0  0  0  0  0
  -31.4720   11.6910  -30.7980 C   0  0  2  0  0  0  0  0  0  0  0  0
  -32.8930   11.9730  -31.2700 C   0  0  0  0  0  0  0  0  0  0  0  0
  -33.6410   11.0220  -31.5130 O   0  0  0  0  0  0  0  0  0  0  0  0
  -31.4810   11.1540  -29.3610 C   0  0  0  0  0  0  0  0  0  0  0  0
  -31.7790   12.1840  -28.2820 C   0  0  0  0  0  0  0  0  0  0  0  0
  -31.6580   11.5720  -26.8820 C   0  0  0  0  0  0  0  0  0  0  0  0
  -30.2030   11.2950  -26.5120 C   0  0  0  0  0  0  0  0  0  0  0  0
  -30.0460   10.8020  -25.1100 N   0  0  0  0  0  0  0  0  0  0  0  0
  -22.2420   12.2480  -27.6150 N   0  0  0  0  0  0  0  0  0  0  0  0
  -23.4060   11.4900  -28.0430 C   0  0  2  0  0  0  0  0  0  0  0  0
  -23.1480   10.0000  -27.8590 C   0  0  0  0  0  0  0  0  0  0  0  0
  -22.1660    9.4660  -28.3870 O   0  0  0  0  0  0  0  0  0  0  0  0
  -23.7320   11.8190  -29.4970 C   0  0  0  0  0  0  0  0  0  0  0  0
  -25.0280   11.2410  -29.9860 C   0  0  0  0  0  0  0  0  0  0  0  0
  -26.2360   11.8550  -29.6900 C   0  0  0  0  0  0  0  0  0  0  0  0
  -25.0440   10.0920  -30.7630 C   0  0  0  0  0  0  0  0  0  0  0  0
  -27.4280   11.3340  -30.1410 C   0  0  0  0  0  0  0  0  0  0  0  0
  -26.2270    9.5640  -31.2180 C   0  0  0  0  0  0  0  0  0  0  0  0
  -27.4170   10.1880  -30.9060 C   0  0  0  0  0  0  0  0  0  0  0  0
  -28.6020    9.6650  -31.3600 O   0  0  0  0  0  0  0  0  0  0  0  0
  -24.0290    9.3340  -27.1130 N   0  0  0  0  0  0  0  0  0  0  0  0
  -23.9160    7.9020  -26.8530 C   0  0  2  0  0  0  0  0  0  0  0  0
  -24.5710    7.1300  -27.9910 C   0  0  0  0  0  0  0  0  0  0  0  0
  -25.7950    7.1800  -28.1590 O   0  0  0  0  0  0  0  0  0  0  0  0
  -24.5620    7.5410  -25.5190 C   0  0  0  0  0  0  0  0  0  0  0  0
  -24.2450    6.1240  -25.0580 C   0  0  0  0  0  0  0  0  0  0  0  0
  -25.0920    5.6910  -23.8810 C   0  0  0  0  0  0  0  0  0  0  0  0
  -25.6890    6.5200  -23.1940 O   0  0  0  0  0  0  0  0  0  0  0  0
  -25.1540    4.3850  -23.6450 N   0  0  0  0  0  0  0  0  0  0  0  0
  -23.7620    6.4060  -28.7660 N   0  0  0  0  0  0  0  0  0  0  0  0
  -24.2590    5.5830  -29.8610 C   0  0  2  0  0  0  0  0  0  0  0  0
  -24.2440    4.0950  -29.5390 C   0  0  0  0  0  0  0  0  0  0  0  0
  -24.6540    3.2890  -30.3790 O   0  0  0  0  0  0  0  0  0  0  0  0
  -23.4480    5.8450  -31.1360 C   0  0  0  0  0  0  0  0  0  0  0  0
  -23.7740    3.7110  -28.3520 N   0  0  0  0  0  0  0  0  0  0  0  0
  -23.8220    2.3410  -27.8980 C   0  0  0  0  0  0  0  0  0  0  0  0
  -24.6180    2.2170  -26.6090 C   0  0  0  0  0  0  0  0  0  0  0  0
  -25.1840    3.1870  -26.0980 O   0  0  0  0  0  0  0  0  0  0  0  0
  -24.6580    0.9900  -26.0940 N   0  0  0  0  0  0  0  0  0  0  0  0
  -25.3290    0.7540  -24.8240 C   0  0  2  0  0  0  0  0  0  0  0  0
  -24.4490    1.1050  -23.6350 C   0  0  0  0  0  0  0  0  0  0  0  0
  -24.9640    1.2520  -22.5200 O   0  0  0  0  0  0  0  0  0  0  0  0
  -25.7850   -0.7020  -24.7230 C   0  0  0  0  0  0  0  0  0  0  0  0
  -24.7860   -1.5840  -25.1990 O   0  0  0  0  0  0  0  0  0  0  0  0
  -23.1490    1.2440  -23.8470 N   0  0  0  0  0  0  0  0  0  0  0  0
  -22.2510    1.6610  -22.7820 C   0  0  2  0  0  0  0  0  0  0  0  0
  -22.3770    3.1630  -22.5630 C   0  0  0  0  0  0  0  0  0  0  0  0
  -22.3000    3.9310  -23.5300 O   0  0  0  0  0  0  0  0  0  0  0  0
  -20.8050    1.3130  -23.1280 C   0  0  2  0  0  0  0  0  0  0  0  0
  -20.6920   -0.0960  -23.3500 O   0  0  0  0  0  0  0  0  0  0  0  0
  -19.8680    1.7230  -21.9970 C   0  0  0  0  0  0  0  0  0  0  0  0
  -14.9460    5.6660  -28.7960 N   0  0  0  0  0  0  0  0  0  0  0  0
  -15.7300    4.8100  -29.6770 C   0  0  2  0  0  0  0  0  0  0  0  0
  -17.1890    4.7990  -29.2390 C   0  0  0  0  0  0  0  0  0  0  0  0
  -17.4910    4.6420  -28.0520 O   0  0  0  0  0  0  0  0  0  0  0  0
  -15.1720    3.3880  -29.6860 C   0  0  0  0  0  0  0  0  0  0  0  0
  -16.0000    2.4220  -30.4860 C   0  0  0  0  0  0  0  0  0  0  0  0
  -16.1400    2.5760  -31.8580 C   0  0  0  0  0  0  0  0  0  0  0  0
  -16.6510    1.3670  -29.8670 C   0  0  0  0  0  0  0  0  0  0  0  0
  -16.9030    1.6910  -32.5980 C   0  0  0  0  0  0  0  0  0  0  0  0
  -17.4180    0.4790  -30.6010 C   0  0  0  0  0  0  0  0  0  0  0  0
  -17.5440    0.6400  -31.9680 C   0  0  0  0  0  0  0  0  0  0  0  0
  -18.0940    4.9720  -30.2020 N   0  0  0  0  0  0  0  0  0  0  0  0
  -19.5340    5.0310  -29.9540 C   0  0  2  0  0  0  0  0  0  0  0  0
  -19.9040    6.1550  -28.9960 C   0  0  0  0  0  0  0  0  0  0  0  0
  -20.9680    6.1170  -28.3690 O   0  0  0  0  0  0  0  0  0  0  0  0
  -20.0590    3.6960  -29.4210 C   0  0  0  0  0  0  0  0  0  0  0  0
  -20.5920    2.8070  -30.5150 C   0  0  0  0  0  0  0  0  0  0  0  0
  -20.7400    3.2330  -31.6620 O   0  0  0  0  0  0  0  0  0  0  0  0
  -20.8510    1.5530  -30.1760 N   0  0  0  0  0  0  0  0  0  0  0  0
  -19.3780   10.0710  -29.4270 N   0  0  0  0  0  0  0  0  0  0  0  0
  -18.9090   11.0730  -30.3730 C   0  0  2  0  0  0  0  0  0  0  0  0
  -19.2900   12.4820  -29.9450 C   0  0  0  0  0  0  0  0  0  0  0  0
  -20.3960   12.7220  -29.4500 O   0  0  0  0  0  0  0  0  0  0  0  0
  -19.4600   10.7840  -31.7720 C   0  0  0  0  0  0  0  0  0  0  0  0
  -19.2310    9.3560  -32.1940 C   0  0  0  0  0  0  0  0  0  0  0  0
  -17.9480    8.8920  -32.4550 C   0  0  0  0  0  0  0  0  0  0  0  0
  -20.2900    8.4640  -32.3080 C   0  0  0  0  0  0  0  0  0  0  0  0
  -17.7240    7.5790  -32.8290 C   0  0  0  0  0  0  0  0  0  0  0  0
  -20.0780    7.1490  -32.6830 C   0  0  0  0  0  0  0  0  0  0  0  0
  -18.7920    6.7120  -32.9400 C   0  0  0  0  0  0  0  0  0  0  0  0
  -18.5710    5.4040  -33.3080 O   0  0  0  0  0  0  0  0  0  0  0  0
  2  1  1  6
  3  2  1  0
  4  3  2  0
  5  2  1  0
  6  5  1  0
  7  6  1  0
  8  7  1  0
  9  8  1  0
 11 10  1  6
 12 11  1  0
 13 12  2  0
 14 11  1  0
 15 14  1  0
 16 15  2  0
 17 15  1  0
 18 16  1  0
 19 17  2  0
 20 19  1  0
 20 18  2  0
 21 20  1  0
 23 22  1  6
 24 23  1  0
 25 24  2  0
 26 23  1  0
 27 26  1  0
 28 27  1  0
 29 28  1  0
 30 29  1  0
 31 30  1  0
 32 30  2  0
 33 24  1  0
 34 33  1  0
 35 34  1  0
 36 35  2  0
 34 37  1  1
 38 37  1  0
 39 38  1  0
 40 38  1  0
 41 35  1  0
 42 41  1  0
 43 42  1  0
 44 43  2  0
 42 45  1  1
 46 45  1  0
 47 46  2  0
 48 46  1  0
 49 47  1  0
 50 48  2  0
 51 49  2  0
 51 50  1  0
 52 43  1  0
 53 52  1  0
 54 53  1  0
 55 54  2  0
 53 56  1  6
 57 56  1  0
 58 57  1  0
 59 58  1  0
 60 59  1  0
 61 60  1  0
 62 60  2  0
 63 54  1  0
 64 63  1  0
 65 64  1  0
 66 65  2  0
 64 67  1  1
 68 67  1  0
 69 68  1  0
 70 69  1  0
 71 70  1  0
 73 72  1  6
 74 73  1  0
 75 74  2  0
 76 73  1  0
 77 76  1  0
 78 77  2  0
 79 77  1  0
 80 78  1  0
 81 79  2  0
 82 80  2  0
 82 81  1  0
 83 82  1  0
 84 74  1  0
 85 84  1  0
 86 85  1  0
 87 86  2  0
 85 88  1  1
 89 88  1  0
 90 89  1  0
 91 90  2  0
 92 90  1  0
 93 86  1  0
 94 93  1  0
 95 94  1  0
 96 95  2  0
 94 97  1  6
 98 95  1  0
 99 98  1  0
100 99  1  0
101100  2  0
102100  1  0
103102  1  0
104103  1  0
105104  2  0
103106  1  1
107106  1  0
108104  1  0
109108  1  6
110109  1  0
111110  2  0
112109  1  0
113112  1  0
112114  1  1
116115  1  1
117116  1  0
118117  2  0
119116  1  0
120119  1  0
121120  2  0
122120  1  0
123121  1  0
124122  2  0
125124  1  0
125123  2  0
126117  1  0
127126  1  0
128127  1  0
129128  2  0
127130  1  1
131130  1  0
132131  2  0
133131  1  0
135134  1  1
136135  1  0
137136  2  0
138135  1  0
139138  1  0
140139  2  0
141139  1  0
142140  1  0
143141  2  0
144142  2  0
144143  1  0
145144  1  0
M  END
$$$$
