
     RDKit          3D

123122  0  0  0  0  0  0  0  0999 V2000
   50.4350   -2.5990   15.9600 N   0  0  0  0  0  0  0  0  0  0  0  0
   50.1810   -2.1220   17.3210 C   0  0  2  0  0  0  0  0  0  0  0  0
   50.5990   -3.2600   18.2160 C   0  0  0  0  0  0  0  0  0  0  0  0
   50.2290   -4.3440   17.9170 O   0  0  0  0  0  0  0  0  0  0  0  0
   48.6730   -2.0320   17.4900 C   0  0  0  0  0  0  0  0  0  0  0  0
   48.1420   -0.6980   17.9680 C   0  0  0  0  0  0  0  0  0  0  0  0
   46.6810   -0.6770   17.6440 C   0  0  0  0  0  0  0  0  0  0  0  0
   45.7460   -1.5100   18.3440 N   0  0  0  0  0  0  0  0  0  0  0  0
   44.4890   -1.1700   18.4610 C   0  0  0  0  0  0  0  0  0  0  0  0
   44.1090   -0.0360   17.9330 N   0  0  0  0  0  0  0  0  0  0  0  0
   43.6220   -1.9080   19.1040 N   0  0  0  0  0  0  0  0  0  0  0  0
   51.5320   12.6290   15.8190 N   0  0  0  0  0  0  0  0  0  0  0  0
   51.0940   11.4410   15.0690 C   0  0  0  0  0  0  0  0  0  0  0  0
   51.9330   11.0880   13.8760 C   0  0  0  0  0  0  0  0  0  0  0  0
   52.2350   11.9680   13.1180 O   0  0  0  0  0  0  0  0  0  0  0  0
   51.7430    9.0150   10.4750 N   0  0  0  0  0  0  0  0  0  0  0  0
   50.7770    8.3380    9.5840 C   0  0  2  0  0  0  0  0  0  0  0  0
   51.4760    7.6930    8.3900 C   0  0  0  0  0  0  0  0  0  0  0  0
   50.9300    7.6770    7.3240 O   0  0  0  0  0  0  0  0  0  0  0  0
   49.7360    9.3490    9.1210 C   0  0  0  0  0  0  0  0  0  0  0  0
   48.8910    9.9490   10.2060 C   0  0  0  0  0  0  0  0  0  0  0  0
   49.2690   11.0850   10.8600 C   0  0  0  0  0  0  0  0  0  0  0  0
   47.6910    9.3990   10.5660 C   0  0  0  0  0  0  0  0  0  0  0  0
   48.4920   11.6470   11.8500 C   0  0  0  0  0  0  0  0  0  0  0  0
   46.9060    9.9300   11.5660 C   0  0  0  0  0  0  0  0  0  0  0  0
   47.3190   11.0540   12.2240 C   0  0  0  0  0  0  0  0  0  0  0  0
   46.5850   11.6110   13.2110 O   0  0  0  0  0  0  0  0  0  0  0  0
   47.2910    0.1810    7.4680 N   0  0  0  0  0  0  0  0  0  0  0  0
   46.8220   -1.1990    7.6690 C   0  0  2  0  0  0  0  0  0  0  0  0
   45.5310   -1.3680    6.8950 C   0  0  0  0  0  0  0  0  0  0  0  0
   44.8200   -0.4630    6.8580 O   0  0  0  0  0  0  0  0  0  0  0  0
   46.6610   -1.5060    9.1430 C   0  0  0  0  0  0  0  0  0  0  0  0
   45.4980   -0.8680    9.8340 C   0  0  0  0  0  0  0  0  0  0  0  0
   45.5340    0.4470   10.1610 C   0  0  0  0  0  0  0  0  0  0  0  0
   44.4080   -1.5850   10.2430 C   0  0  0  0  0  0  0  0  0  0  0  0
   44.5100    1.0400   10.8530 C   0  0  0  0  0  0  0  0  0  0  0  0
   43.3660   -1.0100   10.9260 C   0  0  0  0  0  0  0  0  0  0  0  0
   43.4110    0.3220   11.2080 C   0  0  0  0  0  0  0  0  0  0  0  0
   42.4170    0.9820   11.8480 O   0  0  0  0  0  0  0  0  0  0  0  0
   45.2670    4.6000    8.8420 N   0  0  0  0  0  0  0  0  0  0  0  0
   46.6440    4.8300    9.3080 C   0  0  2  0  0  0  0  0  0  0  0  0
   46.7570    4.6660   10.7980 C   0  0  0  0  0  0  0  0  0  0  0  0
   45.9500    5.2050   11.4780 O   0  0  0  0  0  0  0  0  0  0  0  0
   46.9860    6.2220    9.0070 C   0  0  0  0  0  0  0  0  0  0  0  0
   48.3400    6.4670    9.2750 O   0  0  0  0  0  0  0  0  0  0  0  0
   47.7750    3.9750   11.2590 N   0  0  0  0  0  0  0  0  0  0  0  0
   48.0050    3.8540   12.7050 C   0  0  2  0  0  0  0  0  0  0  0  0
   48.4000    5.2560   13.0920 C   0  0  0  0  0  0  0  0  0  0  0  0
   49.2770    5.7590   12.4890 O   0  0  0  0  0  0  0  0  0  0  0  0
   49.2210    2.9610   12.8840 C   0  0  0  0  0  0  0  0  0  0  0  0
   48.9630    1.4860   12.8640 C   0  0  0  0  0  0  0  0  0  0  0  0
   48.1340    0.9230   13.7860 C   0  0  0  0  0  0  0  0  0  0  0  0
   49.5640    0.6610   11.9610 C   0  0  0  0  0  0  0  0  0  0  0  0
   47.8870   -0.4230   13.8120 C   0  0  0  0  0  0  0  0  0  0  0  0
   49.3130   -0.6850   11.9500 C   0  0  0  0  0  0  0  0  0  0  0  0
   48.4710   -1.2170   12.8800 C   0  0  0  0  0  0  0  0  0  0  0  0
   48.2020   -2.5310   12.9260 O   0  0  0  0  0  0  0  0  0  0  0  0
   47.8190    5.8570   14.0940 N   0  0  0  0  0  0  0  0  0  0  0  0
   48.2010    7.2480   14.3440 C   0  0  0  0  0  0  0  0  0  0  0  0
   49.2020    7.3280   15.4300 C   0  0  0  0  0  0  0  0  0  0  0  0
   48.9650    8.0380   16.3380 O   0  0  0  0  0  0  0  0  0  0  0  0
   50.3250    6.6780   15.2510 N   0  0  0  0  0  0  0  0  0  0  0  0
   51.3160    6.5910   16.3370 C   0  0  2  0  0  0  0  0  0  0  0  0
   51.7870    7.9580   16.7540 C   0  0  0  0  0  0  0  0  0  0  0  0
   52.1740    8.7560   15.9360 O   0  0  0  0  0  0  0  0  0  0  0  0
   52.4970    5.7500   15.9130 C   0  0  0  0  0  0  0  0  0  0  0  0
   52.1000    4.3440   15.6330 C   0  0  0  0  0  0  0  0  0  0  0  0
   51.2640    3.6940   16.4860 C   0  0  0  0  0  0  0  0  0  0  0  0
   52.5600    3.6950   14.5270 C   0  0  0  0  0  0  0  0  0  0  0  0
   50.8840    2.4030   16.2260 C   0  0  0  0  0  0  0  0  0  0  0  0
   52.1770    2.4080   14.2700 C   0  0  0  0  0  0  0  0  0  0  0  0
   51.3550    1.7630   15.1250 C   0  0  0  0  0  0  0  0  0  0  0  0
   51.7120    8.1520   18.0550 N   0  0  0  0  0  0  0  0  0  0  0  0
   52.1390    9.3430   18.8020 C   0  0  2  0  0  0  0  0  0  0  0  0
   52.9290    8.7970   19.9790 C   0  0  0  0  0  0  0  0  0  0  0  0
   52.5380    7.7890   20.5140 O   0  0  0  0  0  0  0  0  0  0  0  0
   50.9080   10.0500   19.3310 C   0  0  0  0  0  0  0  0  0  0  0  0
   50.1070   10.7410   18.2600 C   0  0  0  0  0  0  0  0  0  0  0  0
   49.4380   11.9350   18.8680 C   0  0  0  0  0  0  0  0  0  0  0  0
   49.9340   12.5160   19.8150 O   0  0  0  0  0  0  0  0  0  0  0  0
   48.2940   12.2930   18.3300 N   0  0  0  0  0  0  0  0  0  0  0  0
   52.9730    9.5390   23.1050 N   0  0  0  0  0  0  0  0  0  0  0  0
   52.2120    9.5720   24.3660 C   0  0  2  0  0  0  0  0  0  0  0  0
   51.0800    8.5640   24.3550 C   0  0  0  0  0  0  0  0  0  0  0  0
   50.1020    8.8400   24.9820 O   0  0  0  0  0  0  0  0  0  0  0  0
   51.5950   10.9600   24.5200 C   0  0  2  0  0  0  0  0  0  0  0  0
   50.3110   11.0340   23.8940 O   0  0  0  0  0  0  0  0  0  0  0  0
   52.5130   12.0350   23.9810 C   0  0  0  0  0  0  0  0  0  0  0  0
   51.1520    7.5420   23.5420 N   0  0  0  0  0  0  0  0  0  0  0  0
   50.0460    6.5800   23.5620 C   0  0  2  0  0  0  0  0  0  0  0  0
   50.4030    5.5390   24.5840 C   0  0  0  0  0  0  0  0  0  0  0  0
   51.5390    5.2790   24.7930 O   0  0  0  0  0  0  0  0  0  0  0  0
   50.0970    5.6210   22.3900 C   0  0  0  0  0  0  0  0  0  0  0  0
   49.7920    6.1870   21.0280 C   0  0  0  0  0  0  0  0  0  0  0  0
   49.5730    7.3610   20.8590 O   0  0  0  0  0  0  0  0  0  0  0  0
   49.7330    5.3230   20.0470 N   0  0  0  0  0  0  0  0  0  0  0  0
   49.3750    4.7440   24.8260 N   0  0  0  0  0  0  0  0  0  0  0  0
   49.4160    3.5960   25.7270 C   0  0  0  0  0  0  0  0  0  0  0  0
   50.2330    2.5370   25.0760 C   0  0  0  0  0  0  0  0  0  0  0  0
   50.1290    2.4130   23.9020 O   0  0  0  0  0  0  0  0  0  0  0  0
   50.8710    1.6630   25.8390 N   0  0  0  0  0  0  0  0  0  0  0  0
   51.7820    0.6390   25.2550 C   0  0  2  0  0  0  0  0  0  0  0  0
   51.0110   -0.3980   24.4670 C   0  0  0  0  0  0  0  0  0  0  0  0
   51.5570   -0.9410   23.5670 O   0  0  0  0  0  0  0  0  0  0  0  0
   52.5870   -0.0610   26.3420 C   0  0  0  0  0  0  0  0  0  0  0  0
   53.7840    0.7670   26.7290 C   0  0  0  0  0  0  0  0  0  0  0  0
   51.6970   -0.2940   27.5260 C   0  0  0  0  0  0  0  0  0  0  0  0
   49.7220   -0.5850   24.6840 N   0  0  0  0  0  0  0  0  0  0  0  0
   49.0110   -1.5600   23.8530 C   0  0  0  0  0  0  0  0  0  0  0  0
   48.6550   -1.0130   22.4940 C   0  0  0  0  0  0  0  0  0  0  0  0
   48.1060   -1.7800   21.7430 O   0  0  0  0  0  0  0  0  0  0  0  0
   48.8860    0.2740   22.2570 N   0  0  0  0  0  0  0  0  0  0  0  0
   48.6430    1.0270   21.0280 C   0  0  2  0  0  0  0  0  0  0  0  0
   49.9230    1.7650   20.6380 C   0  0  0  0  0  0  0  0  0  0  0  0
   49.8010    2.7610   19.9860 O   0  0  0  0  0  0  0  0  0  0  0  0
   47.5360    2.0310   21.3130 C   0  0  0  0  0  0  0  0  0  0  0  0
   46.3440    1.4760   22.0430 C   0  0  0  0  0  0  0  0  0  0  0  0
   45.6900    0.3740   21.5720 C   0  0  0  0  0  0  0  0  0  0  0  0
   45.8380    2.0560   23.1780 C   0  0  0  0  0  0  0  0  0  0  0  0
   44.5860   -0.1560   22.1950 C   0  0  0  0  0  0  0  0  0  0  0  0
   44.7430    1.5350   23.8320 C   0  0  0  0  0  0  0  0  0  0  0  0
   44.1170    0.4230   23.3350 C   0  0  0  0  0  0  0  0  0  0  0  0
   43.0380   -0.1420   23.9170 O   0  0  0  0  0  0  0  0  0  0  0  0
  2  1  1  6
  3  2  1  0
  4  3  2  0
  5  2  1  0
  6  5  1  0
  7  6  1  0
  8  7  1  0
  9  8  1  0
 10  9  1  0
 11  9  2  0
 13 12  1  0
 14 13  1  0
 15 14  2  0
 17 16  1  1
 18 17  1  0
 19 18  2  0
 20 17  1  0
 21 20  1  0
 22 21  2  0
 23 21  1  0
 24 22  1  0
 25 23  2  0
 26 25  1  0
 26 24  2  0
 27 26  1  0
 29 28  1  1
 30 29  1  0
 31 30  2  0
 32 29  1  0
 33 32  1  0
 34 33  2  0
 35 33  1  0
 36 34  1  0
 37 35  2  0
 38 37  1  0
 38 36  2  0
 39 38  1  0
 41 40  1  1
 42 41  1  0
 43 42  2  0
 44 41  1  0
 45 44  1  0
 46 42  1  0
 47 46  1  0
 48 47  1  0
 49 48  2  0
 47 50  1  6
 51 50  1  0
 52 51  2  0
 53 51  1  0
 54 52  1  0
 55 53  2  0
 56 54  2  0
 56 55  1  0
 57 56  1  0
 58 48  1  0
 59 58  1  0
 60 59  1  0
 61 60  2  0
 62 60  1  0
 63 62  1  0
 64 63  1  0
 65 64  2  0
 63 66  1  6
 67 66  1  0
 68 67  2  0
 69 67  1  0
 70 68  1  0
 71 69  2  0
 72 71  1  0
 72 70  2  0
 73 64  1  0
 74 73  1  0
 75 74  1  0
 76 75  2  0
 74 77  1  1
 78 77  1  0
 79 78  1  0
 80 79  2  0
 81 79  1  0
 83 82  1  6
 84 83  1  0
 85 84  2  0
 86 83  1  0
 87 86  1  0
 86 88  1  6
 89 84  1  0
 90 89  1  0
 91 90  1  0
 92 91  2  0
 90 93  1  6
 94 93  1  0
 95 94  2  0
 96 94  1  0
 97 91  1  0
 98 97  1  0
 99 98  1  0
100 99  2  0
101 99  1  0
102101  1  1
103102  1  0
104103  2  0
105102  1  0
106105  1  0
107105  1  0
108103  1  0
109108  1  0
110109  1  0
111110  2  0
112110  1  0
113112  1  0
114113  1  0
115114  2  0
113116  1  1
117116  1  0
118117  2  0
119117  1  0
120118  1  0
121119  2  0
122121  1  0
122120  2  0
123122  1  0
M  END
$$$$
