
     RDKit          3D

145144  0  0  0  0  0  0  0  0999 V2000
   41.7460   -7.9800   12.8210 N   0  0  0  0  0  0  0  0  0  0  0  0
   41.8320   -7.1400   11.6170 C   0  0  2  0  0  0  0  0  0  0  0  0
   43.1960   -7.3140   10.9650 C   0  0  0  0  0  0  0  0  0  0  0  0
   43.2840   -6.9590    9.8500 O   0  0  0  0  0  0  0  0  0  0  0  0
   41.5950   -5.6790   11.9930 C   0  0  0  0  0  0  0  0  0  0  0  0
   40.1410   -5.2640   12.0990 C   0  0  0  0  0  0  0  0  0  0  0  0
   39.9790   -3.7940   12.2170 C   0  0  0  0  0  0  0  0  0  0  0  0
   39.7360   -3.3630   13.6390 C   0  0  0  0  0  0  0  0  0  0  0  0
   39.5070   -1.9060   13.7570 N   0  0  0  0  0  0  0  0  0  0  0  0
   42.8210   -9.4530    7.3290 N   0  0  0  0  0  0  0  0  0  0  0  0
   42.9270   -8.5350    6.1900 C   0  0  2  0  0  0  0  0  0  0  0  0
   44.3650   -8.1580    5.8880 C   0  0  0  0  0  0  0  0  0  0  0  0
   44.6340   -7.9420    4.7410 O   0  0  0  0  0  0  0  0  0  0  0  0
   41.9990   -7.3580    6.4310 C   0  0  0  0  0  0  0  0  0  0  0  0
   40.6190   -7.8130    6.7940 C   0  0  0  0  0  0  0  0  0  0  0  0
   40.1290   -8.9640    6.2710 C   0  0  0  0  0  0  0  0  0  0  0  0
   39.7920   -7.1050    7.6240 C   0  0  0  0  0  0  0  0  0  0  0  0
   38.8950   -9.4440    6.6000 C   0  0  0  0  0  0  0  0  0  0  0  0
   38.5330   -7.5540    7.9490 C   0  0  0  0  0  0  0  0  0  0  0  0
   38.0900   -8.7310    7.4240 C   0  0  0  0  0  0  0  0  0  0  0  0
   36.8920   -9.2860    7.6550 O   0  0  0  0  0  0  0  0  0  0  0  0
   45.2620   -2.4950    6.2720 N   0  0  0  0  0  0  0  0  0  0  0  0
   44.0040   -2.5700    5.5070 C   0  0  2  0  0  0  0  0  0  0  0  0
   42.8920   -2.6450    6.5200 C   0  0  0  0  0  0  0  0  0  0  0  0
   43.0610   -3.3500    7.4470 O   0  0  0  0  0  0  0  0  0  0  0  0
   43.9320   -3.9180    4.8100 C   0  0  0  0  0  0  0  0  0  0  0  0
   43.1280   -3.9810    3.5300 C   0  0  0  0  0  0  0  0  0  0  0  0
   43.8600   -5.0120    2.7530 C   0  0  0  0  0  0  0  0  0  0  0  0
   44.4250   -4.1780    1.7520 N   0  0  0  0  0  0  0  0  0  0  0  0
   43.6670   -3.5980    0.8830 C   0  0  0  0  0  0  0  0  0  0  0  0
   42.3830   -3.8370    0.9100 N   0  0  0  0  0  0  0  0  0  0  0  0
   44.1720   -2.8120   -0.0280 N   0  0  0  0  0  0  0  0  0  0  0  0
   41.7740   -1.9860    6.3110 N   0  0  0  0  0  0  0  0  0  0  0  0
   40.7320   -2.1130    7.3380 C   0  0  2  0  0  0  0  0  0  0  0  0
   39.4940   -2.7050    6.7040 C   0  0  0  0  0  0  0  0  0  0  0  0
   38.7740   -3.3280    7.3960 O   0  0  0  0  0  0  0  0  0  0  0  0
   40.4610   -0.7230    7.8760 C   0  0  0  0  0  0  0  0  0  0  0  0
   39.0710   -0.4630    8.4020 C   0  0  0  0  0  0  0  0  0  0  0  0
   38.7930   -1.3330    9.5690 C   0  0  0  0  0  0  0  0  0  0  0  0
   38.9470    0.9650    8.8260 C   0  0  0  0  0  0  0  0  0  0  0  0
   39.3720   -2.7120    5.3960 N   0  0  0  0  0  0  0  0  0  0  0  0
   38.1600   -3.3240    4.8290 C   0  0  2  0  0  0  0  0  0  0  0  0
   38.5650   -4.3130    3.7530 C   0  0  0  0  0  0  0  0  0  0  0  0
   39.3490   -3.9890    2.9590 O   0  0  0  0  0  0  0  0  0  0  0  0
   37.3410   -2.2310    4.1530 C   0  0  0  0  0  0  0  0  0  0  0  0
   36.7440   -1.1520    5.0140 C   0  0  0  0  0  0  0  0  0  0  0  0
   35.6870   -1.4050    5.8390 C   0  0  0  0  0  0  0  0  0  0  0  0
   37.2020    0.1290    4.9190 C   0  0  0  0  0  0  0  0  0  0  0  0
   35.1450   -0.4050    6.5990 C   0  0  0  0  0  0  0  0  0  0  0  0
   36.6690    1.1260    5.6810 C   0  0  0  0  0  0  0  0  0  0  0  0
   35.6520    0.8480    6.5240 C   0  0  0  0  0  0  0  0  0  0  0  0
   37.9790   -5.4880    3.7430 N   0  0  0  0  0  0  0  0  0  0  0  0
   38.2330   -6.5220    2.7190 C   0  0  2  0  0  0  0  0  0  0  0  0
   36.9850   -7.3840    2.7120 C   0  0  0  0  0  0  0  0  0  0  0  0
   36.4160   -7.5640    3.7320 O   0  0  0  0  0  0  0  0  0  0  0  0
   39.4790   -7.3280    3.0630 C   0  0  0  0  0  0  0  0  0  0  0  0
   40.1240   -8.1050    1.9240 C   0  0  0  0  0  0  0  0  0  0  0  0
   41.6250   -8.0970    1.9530 C   0  0  0  0  0  0  0  0  0  0  0  0
   42.1430   -8.6520    0.7370 N   0  0  0  0  0  0  0  0  0  0  0  0
   41.8270   -9.8350    0.3600 C   0  0  0  0  0  0  0  0  0  0  0  0
   41.0800  -10.5360    1.1520 N   0  0  0  0  0  0  0  0  0  0  0  0
   42.2890  -10.3680   -0.7340 N   0  0  0  0  0  0  0  0  0  0  0  0
   36.6050   -7.9800    1.5990 N   0  0  0  0  0  0  0  0  0  0  0  0
   35.3070   -8.6830    1.6180 C   0  0  2  0  0  0  0  0  0  0  0  0
   35.4770  -10.1150    2.0510 C   0  0  0  0  0  0  0  0  0  0  0  0
   34.4810  -10.7790    2.0830 O   0  0  0  0  0  0  0  0  0  0  0  0
   34.7050   -8.7580    0.2200 C   0  0  0  0  0  0  0  0  0  0  0  0
   33.3940   -8.0150    0.0020 C   0  0  0  0  0  0  0  0  0  0  0  0
   33.5970   -6.6040   -0.5040 C   0  0  0  0  0  0  0  0  0  0  0  0
   32.3880   -5.9760   -1.1550 C   0  0  0  0  0  0  0  0  0  0  0  0
   32.7580   -4.7440   -1.8810 N   0  0  0  0  0  0  0  0  0  0  0  0
   36.4930    0.6870   -1.4240 N   0  0  0  0  0  0  0  0  0  0  0  0
   35.7140   -0.4610   -0.9620 C   0  0  2  0  0  0  0  0  0  0  0  0
   34.2590   -0.0750   -1.0650 C   0  0  0  0  0  0  0  0  0  0  0  0
   33.9670    0.9470   -0.6260 O   0  0  0  0  0  0  0  0  0  0  0  0
   36.1180   -0.7040    0.4820 C   0  0  0  0  0  0  0  0  0  0  0  0
   35.4230   -1.8470    1.1390 C   0  0  0  0  0  0  0  0  0  0  0  0
   35.5830   -3.1130    0.6860 C   0  0  0  0  0  0  0  0  0  0  0  0
   34.6100   -1.6460    2.2020 C   0  0  0  0  0  0  0  0  0  0  0  0
   34.9230   -4.1600    1.2600 C   0  0  0  0  0  0  0  0  0  0  0  0
   33.9430   -2.6750    2.8010 C   0  0  0  0  0  0  0  0  0  0  0  0
   34.1050   -3.9300    2.3170 C   0  0  0  0  0  0  0  0  0  0  0  0
   33.4640   -4.9500    2.8850 O   0  0  0  0  0  0  0  0  0  0  0  0
   33.4070   -0.8800   -1.6590 N   0  0  0  0  0  0  0  0  0  0  0  0
   31.9880   -0.5160   -1.7640 C   0  0  2  0  0  0  0  0  0  0  0  0
   31.2790   -1.2040   -0.6320 C   0  0  0  0  0  0  0  0  0  0  0  0
   31.1990   -2.3920   -0.6960 O   0  0  0  0  0  0  0  0  0  0  0  0
   31.4400   -1.1660   -3.0180 C   0  0  0  0  0  0  0  0  0  0  0  0
   30.0550   -0.7320   -3.4180 C   0  0  0  0  0  0  0  0  0  0  0  0
   29.5650   -1.7170   -4.4280 C   0  0  0  0  0  0  0  0  0  0  0  0
   30.0560   -1.8040   -5.5260 O   0  0  0  0  0  0  0  0  0  0  0  0
   28.6120   -2.5120   -4.0280 N   0  0  0  0  0  0  0  0  0  0  0  0
   30.6970   -0.4610    0.2920 N   0  0  0  0  0  0  0  0  0  0  0  0
   30.0720   -1.1050    1.4580 C   0  0  2  0  0  0  0  0  0  0  0  0
   28.5650   -1.0230    1.4570 C   0  0  0  0  0  0  0  0  0  0  0  0
   28.0530   -1.3100    2.4540 O   0  0  0  0  0  0  0  0  0  0  0  0
   30.6000   -0.5130    2.7130 C   0  0  0  0  0  0  0  0  0  0  0  0
   27.9840   -0.6530    0.3430 N   0  0  0  0  0  0  0  0  0  0  0  0
   26.5370   -0.5360    0.2200 C   0  0  0  0  0  0  0  0  0  0  0  0
   26.0610   -1.3680   -0.9250 C   0  0  0  0  0  0  0  0  0  0  0  0
   26.6930   -2.3310   -1.2180 O   0  0  0  0  0  0  0  0  0  0  0  0
   24.9870   -0.9680   -1.5640 N   0  0  0  0  0  0  0  0  0  0  0  0
   24.4190   -1.7780   -2.6570 C   0  0  2  0  0  0  0  0  0  0  0  0
   24.6070   -1.0490   -3.9630 C   0  0  0  0  0  0  0  0  0  0  0  0
   24.5980   -1.6730   -4.9620 O   0  0  0  0  0  0  0  0  0  0  0  0
   22.9950   -1.9810   -2.4270 C   0  0  0  0  0  0  0  0  0  0  0  0
   22.4180   -0.8240   -1.8840 O   0  0  0  0  0  0  0  0  0  0  0  0
   24.7620    0.2490   -3.8770 N   0  0  0  0  0  0  0  0  0  0  0  0
   24.9230    1.1840   -4.9960 C   0  0  2  0  0  0  0  0  0  0  0  0
   26.3990    1.2900   -5.2790 C   0  0  0  0  0  0  0  0  0  0  0  0
   27.0810    1.6660   -4.3820 O   0  0  0  0  0  0  0  0  0  0  0  0
   24.6010    2.5670   -4.4450 C   0  0  2  0  0  0  0  0  0  0  0  0
   23.1910    2.7010   -4.3910 O   0  0  0  0  0  0  0  0  0  0  0  0
   25.1670    3.6850   -5.2720 C   0  0  0  0  0  0  0  0  0  0  0  0
   30.2800    8.2260    1.1830 N   0  0  0  0  0  0  0  0  0  0  0  0
   29.4400    7.3150    1.9860 C   0  0  2  0  0  0  0  0  0  0  0  0
   29.4820    5.8830    1.4910 C   0  0  0  0  0  0  0  0  0  0  0  0
   29.3890    5.7320    0.3570 O   0  0  0  0  0  0  0  0  0  0  0  0
   27.9990    7.7520    1.8520 C   0  0  0  0  0  0  0  0  0  0  0  0
   27.1450    7.1900    2.9420 C   0  0  0  0  0  0  0  0  0  0  0  0
   27.4890    7.3710    4.2490 C   0  0  0  0  0  0  0  0  0  0  0  0
   26.0380    6.4410    2.6670 C   0  0  0  0  0  0  0  0  0  0  0  0
   26.7390    6.8180    5.2580 C   0  0  0  0  0  0  0  0  0  0  0  0
   25.2890    5.8830    3.6730 C   0  0  0  0  0  0  0  0  0  0  0  0
   25.6380    6.0820    4.9640 C   0  0  0  0  0  0  0  0  0  0  0  0
   29.6430    4.8960    2.3540 N   0  0  0  0  0  0  0  0  0  0  0  0
   29.6900    3.4650    1.9880 C   0  0  2  0  0  0  0  0  0  0  0  0
   30.6940    3.2760    0.8630 C   0  0  0  0  0  0  0  0  0  0  0  0
   30.5040    2.4330    0.0650 O   0  0  0  0  0  0  0  0  0  0  0  0
   28.3530    2.9290    1.4660 C   0  0  0  0  0  0  0  0  0  0  0  0
   27.1650    2.9390    2.3900 C   0  0  0  0  0  0  0  0  0  0  0  0
   27.2790    2.7030    3.5750 O   0  0  0  0  0  0  0  0  0  0  0  0
   26.0000    3.1380    1.8270 N   0  0  0  0  0  0  0  0  0  0  0  0
   34.5190    3.5480    0.8680 N   0  0  0  0  0  0  0  0  0  0  0  0
   35.6500    3.8490    1.7440 C   0  0  2  0  0  0  0  0  0  0  0  0
   36.9970    3.4600    1.2230 C   0  0  0  0  0  0  0  0  0  0  0  0
   37.1710    2.4020    0.8520 O   0  0  0  0  0  0  0  0  0  0  0  0
   35.4230    3.0320    2.9970 C   0  0  0  0  0  0  0  0  0  0  0  0
   34.1870    3.4970    3.6860 C   0  0  0  0  0  0  0  0  0  0  0  0
   34.1230    4.7860    4.1300 C   0  0  0  0  0  0  0  0  0  0  0  0
   33.0850    2.7010    3.8350 C   0  0  0  0  0  0  0  0  0  0  0  0
   32.9930    5.3020    4.7060 C   0  0  0  0  0  0  0  0  0  0  0  0
   31.9530    3.1950    4.4370 C   0  0  0  0  0  0  0  0  0  0  0  0
   31.9120    4.4930    4.8590 C   0  0  0  0  0  0  0  0  0  0  0  0
   30.8480    5.0400    5.4520 O   0  0  0  0  0  0  0  0  0  0  0  0
  2  1  1  1
  3  2  1  0
  4  3  2  0
  5  2  1  0
  6  5  1  0
  7  6  1  0
  8  7  1  0
  9  8  1  0
 11 10  1  1
 12 11  1  0
 13 12  2  0
 14 11  1  0
 15 14  1  0
 16 15  2  0
 17 15  1  0
 18 16  1  0
 19 17  2  0
 20 19  1  0
 20 18  2  0
 21 20  1  0
 23 22  1  1
 24 23  1  0
 25 24  2  0
 26 23  1  0
 27 26  1  0
 28 27  1  0
 29 28  1  0
 30 29  1  0
 31 30  1  0
 32 30  2  0
 33 24  1  0
 34 33  1  0
 35 34  1  0
 36 35  2  0
 34 37  1  6
 38 37  1  0
 39 38  1  0
 40 38  1  0
 41 35  1  0
 42 41  1  0
 43 42  1  0
 44 43  2  0
 42 45  1  6
 46 45  1  0
 47 46  2  0
 48 46  1  0
 49 47  1  0
 50 48  2  0
 51 50  1  0
 51 49  2  0
 52 43  1  0
 53 52  1  0
 54 53  1  0
 55 54  2  0
 53 56  1  1
 57 56  1  0
 58 57  1  0
 59 58  1  0
 60 59  1  0
 61 60  1  0
 62 60  2  0
 63 54  1  0
 64 63  1  0
 65 64  1  0
 66 65  2  0
 64 67  1  6
 68 67  1  0
 69 68  1  0
 70 69  1  0
 71 70  1  0
 73 72  1  1
 74 73  1  0
 75 74  2  0
 76 73  1  0
 77 76  1  0
 78 77  2  0
 79 77  1  0
 80 78  1  0
 81 79  2  0
 82 81  1  0
 82 80  2  0
 83 82  1  0
 84 74  1  0
 85 84  1  0
 86 85  1  0
 87 86  2  0
 85 88  1  6
 89 88  1  0
 90 89  1  0
 91 90  2  0
 92 90  1  0
 93 86  1  0
 94 93  1  0
 95 94  1  0
 96 95  2  0
 94 97  1  1
 98 95  1  0
 99 98  1  0
100 99  1  0
101100  2  0
102100  1  0
103102  1  0
104103  1  0
105104  2  0
103106  1  1
107106  1  0
108104  1  0
109108  1  1
110109  1  0
111110  2  0
112109  1  0
113112  1  0
112114  1  6
116115  1  6
117116  1  0
118117  2  0
119116  1  0
120119  1  0
121120  2  0
122120  1  0
123121  1  0
124122  2  0
125124  1  0
125123  2  0
126117  1  0
127126  1  0
128127  1  0
129128  2  0
127130  1  6
131130  1  0
132131  2  0
133131  1  0
135134  1  6
136135  1  0
137136  2  0
138135  1  0
139138  1  0
140139  2  0
141139  1  0
142140  1  0
143141  2  0
144143  1  0
144142  2  0
145144  1  0
M  END
$$$$
