
     RDKit          3D

145144  0  0  0  0  0  0  0  0999 V2000
  -20.3500    2.9320   53.1240 N   0  0  0  0  0  0  0  0  0  0  0  0
  -20.9730    2.0730   54.1310 C   0  0  2  0  0  0  0  0  0  0  0  0
  -19.9430    1.2300   54.8770 C   0  0  0  0  0  0  0  0  0  0  0  0
  -20.0030    1.1020   56.1070 O   0  0  0  0  0  0  0  0  0  0  0  0
  -22.0480    1.1870   53.4830 C   0  0  0  0  0  0  0  0  0  0  0  0
  -23.2750    1.9800   53.0190 C   0  0  0  0  0  0  0  0  0  0  0  0
  -24.2680    1.1240   52.2760 C   0  0  0  0  0  0  0  0  0  0  0  0
  -25.3150    1.9980   51.6140 C   0  0  0  0  0  0  0  0  0  0  0  0
  -26.2520    1.2060   50.7720 N   0  0  0  0  0  0  0  0  0  0  0  0
  -19.0000    2.5250   58.6310 N   0  0  0  0  0  0  0  0  0  0  0  0
  -19.6910    1.7620   59.6570 C   0  0  2  0  0  0  0  0  0  0  0  0
  -19.1020    0.3840   59.8640 C   0  0  0  0  0  0  0  0  0  0  0  0
  -19.6370   -0.3870   60.6790 O   0  0  0  0  0  0  0  0  0  0  0  0
  -21.1830    1.6130   59.3100 C   0  0  0  0  0  0  0  0  0  0  0  0
  -21.8170    2.9000   58.8750 C   0  0  0  0  0  0  0  0  0  0  0  0
  -21.6240    4.0620   59.5990 C   0  0  0  0  0  0  0  0  0  0  0  0
  -22.5830    2.9590   57.7340 C   0  0  0  0  0  0  0  0  0  0  0  0
  -22.1790    5.2520   59.1970 C   0  0  0  0  0  0  0  0  0  0  0  0
  -23.1500    4.1480   57.3230 C   0  0  0  0  0  0  0  0  0  0  0  0
  -22.9390    5.2920   58.0600 C   0  0  0  0  0  0  0  0  0  0  0  0
  -23.5000    6.4810   57.6620 O   0  0  0  0  0  0  0  0  0  0  0  0
  -22.5030   -4.1070   58.6010 N   0  0  0  0  0  0  0  0  0  0  0  0
  -23.3770   -3.1840   59.3090 C   0  0  2  0  0  0  0  0  0  0  0  0
  -23.9000   -2.1230   58.3440 C   0  0  0  0  0  0  0  0  0  0  0  0
  -23.1280   -1.4030   57.7130 O   0  0  0  0  0  0  0  0  0  0  0  0
  -22.6400   -2.5280   60.4850 C   0  0  0  0  0  0  0  0  0  0  0  0
  -23.3860   -1.3280   61.1300 C   0  0  0  0  0  0  0  0  0  0  0  0
  -22.7570   -0.8820   62.4640 C   0  0  0  0  0  0  0  0  0  0  0  0
  -22.2510   -2.0320   63.2110 N   0  0  0  0  0  0  0  0  0  0  0  0
  -22.9780   -2.8440   63.9820 C   0  0  0  0  0  0  0  0  0  0  0  0
  -24.2820   -2.6550   64.1630 N   0  0  0  0  0  0  0  0  0  0  0  0
  -22.3890   -3.8630   64.5830 N   0  0  0  0  0  0  0  0  0  0  0  0
  -25.2160   -2.0060   58.2560 N   0  0  0  0  0  0  0  0  0  0  0  0
  -25.8610   -1.0830   57.3400 C   0  0  2  0  0  0  0  0  0  0  0  0
  -26.2020    0.2640   57.9730 C   0  0  0  0  0  0  0  0  0  0  0  0
  -26.3260    1.2630   57.2500 O   0  0  0  0  0  0  0  0  0  0  0  0
  -27.1280   -1.7540   56.7880 C   0  0  0  0  0  0  0  0  0  0  0  0
  -28.0970   -1.0450   55.8520 C   0  0  0  0  0  0  0  0  0  0  0  0
  -27.4470   -0.6670   54.5300 C   0  0  0  0  0  0  0  0  0  0  0  0
  -29.3290   -1.9500   55.6560 C   0  0  0  0  0  0  0  0  0  0  0  0
  -26.3440    0.3230   59.2980 N   0  0  0  0  0  0  0  0  0  0  0  0
  -26.7880    1.5270   59.9940 C   0  0  2  0  0  0  0  0  0  0  0  0
  -25.8770    1.8090   61.1820 C   0  0  0  0  0  0  0  0  0  0  0  0
  -25.5790    0.9080   61.9800 O   0  0  0  0  0  0  0  0  0  0  0  0
  -28.2520    1.3940   60.5270 C   0  0  0  0  0  0  0  0  0  0  0  0
  -29.3240    1.4660   59.4730 C   0  0  0  0  0  0  0  0  0  0  0  0
  -29.6890    2.6760   58.9030 C   0  0  0  0  0  0  0  0  0  0  0  0
  -30.0120    0.3230   59.1010 C   0  0  0  0  0  0  0  0  0  0  0  0
  -30.7020    2.7370   57.9490 C   0  0  0  0  0  0  0  0  0  0  0  0
  -31.0260    0.3660   58.1610 C   0  0  0  0  0  0  0  0  0  0  0  0
  -31.3710    1.5800   57.5800 C   0  0  0  0  0  0  0  0  0  0  0  0
  -25.4840    3.0720   61.3250 N   0  0  0  0  0  0  0  0  0  0  0  0
  -24.8230    3.5240   62.5390 C   0  0  2  0  0  0  0  0  0  0  0  0
  -25.0120    5.0340   62.6330 C   0  0  0  0  0  0  0  0  0  0  0  0
  -25.0920    5.7180   61.6020 O   0  0  0  0  0  0  0  0  0  0  0  0
  -23.3340    3.1370   62.5490 C   0  0  0  0  0  0  0  0  0  0  0  0
  -22.6950    2.9770   63.9350 C   0  0  0  0  0  0  0  0  0  0  0  0
  -21.2540    2.3790   63.8280 C   0  0  0  0  0  0  0  0  0  0  0  0
  -20.5870    2.2040   65.1230 N   0  0  0  0  0  0  0  0  0  0  0  0
  -19.9200    3.1730   65.7370 C   0  0  0  0  0  0  0  0  0  0  0  0
  -19.8390    4.3660   65.1560 N   0  0  0  0  0  0  0  0  0  0  0  0
  -19.3440    2.9580   66.9220 N   0  0  0  0  0  0  0  0  0  0  0  0
  -25.1120    5.5440   63.8680 N   0  0  0  0  0  0  0  0  0  0  0  0
  -25.4130    6.9620   64.0550 C   0  0  2  0  0  0  0  0  0  0  0  0
  -24.2010    7.8290   63.7510 C   0  0  0  0  0  0  0  0  0  0  0  0
  -24.3500    8.9900   63.3460 O   0  0  0  0  0  0  0  0  0  0  0  0
  -25.9200    7.1990   65.4780 C   0  0  0  0  0  0  0  0  0  0  0  0
  -26.9930    6.1800   65.9010 C   0  0  0  0  0  0  0  0  0  0  0  0
  -27.7560    6.5660   67.1930 C   0  0  0  0  0  0  0  0  0  0  0  0
  -28.9470    5.6060   67.4750 C   0  0  0  0  0  0  0  0  0  0  0  0
  -30.1710    5.7670   66.5830 N   0  0  0  0  0  0  0  0  0  0  0  0
  -31.6860   -0.5650   65.1480 N   0  0  0  0  0  0  0  0  0  0  0  0
  -31.4580    0.8260   64.7840 C   0  0  2  0  0  0  0  0  0  0  0  0
  -32.7860    1.5780   64.7630 C   0  0  0  0  0  0  0  0  0  0  0  0
  -33.7590    1.1390   64.1360 O   0  0  0  0  0  0  0  0  0  0  0  0
  -30.7590    0.9250   63.4260 C   0  0  0  0  0  0  0  0  0  0  0  0
  -30.2650    2.3170   63.0950 C   0  0  0  0  0  0  0  0  0  0  0  0
  -29.0570    2.7820   63.6050 C   0  0  0  0  0  0  0  0  0  0  0  0
  -31.0040    3.1700   62.2740 C   0  0  0  0  0  0  0  0  0  0  0  0
  -28.5950    4.0460   63.3220 C   0  0  0  0  0  0  0  0  0  0  0  0
  -30.5340    4.4440   61.9790 C   0  0  0  0  0  0  0  0  0  0  0  0
  -29.3160    4.8690   62.5110 C   0  0  0  0  0  0  0  0  0  0  0  0
  -28.8370    6.1300   62.2450 O   0  0  0  0  0  0  0  0  0  0  0  0
  -32.8150    2.7120   65.4480 N   0  0  0  0  0  0  0  0  0  0  0  0
  -34.0120    3.5190   65.5950 C   0  0  2  0  0  0  0  0  0  0  0  0
  -33.9420    4.6580   64.5800 C   0  0  0  0  0  0  0  0  0  0  0  0
  -33.2650    5.6670   64.8010 O   0  0  0  0  0  0  0  0  0  0  0  0
  -34.1280    4.0230   67.0280 C   0  0  0  0  0  0  0  0  0  0  0  0
  -35.2030    5.0520   67.2410 C   0  0  0  0  0  0  0  0  0  0  0  0
  -35.3130    5.4570   68.6850 C   0  0  0  0  0  0  0  0  0  0  0  0
  -35.1820    4.6190   69.5910 O   0  0  0  0  0  0  0  0  0  0  0  0
  -35.5650    6.7420   68.9200 N   0  0  0  0  0  0  0  0  0  0  0  0
  -34.6450    4.4820   63.4570 N   0  0  0  0  0  0  0  0  0  0  0  0
  -34.7740    5.5110   62.4350 C   0  0  2  0  0  0  0  0  0  0  0  0
  -35.8930    6.4950   62.7260 C   0  0  0  0  0  0  0  0  0  0  0  0
  -35.9890    7.5210   62.0470 O   0  0  0  0  0  0  0  0  0  0  0  0
  -35.0200    4.8670   61.0730 C   0  0  0  0  0  0  0  0  0  0  0  0
  -36.7530    6.2080   63.7060 N   0  0  0  0  0  0  0  0  0  0  0  0
  -37.9170    7.0190   63.9740 C   0  0  0  0  0  0  0  0  0  0  0  0
  -37.8270    7.6800   65.3380 C   0  0  0  0  0  0  0  0  0  0  0  0
  -36.9660    7.3530   66.1650 O   0  0  0  0  0  0  0  0  0  0  0  0
  -38.7470    8.6230   65.5670 N   0  0  0  0  0  0  0  0  0  0  0  0
  -38.7720    9.3690   66.8220 C   0  0  2  0  0  0  0  0  0  0  0  0
  -39.2830    8.5460   67.9990 C   0  0  0  0  0  0  0  0  0  0  0  0
  -39.1530    8.9910   69.1440 O   0  0  0  0  0  0  0  0  0  0  0  0
  -39.6310   10.6090   66.6700 C   0  0  0  0  0  0  0  0  0  0  0  0
  -40.7920   10.2840   65.9360 O   0  0  0  0  0  0  0  0  0  0  0  0
  -39.8620    7.3720   67.7630 N   0  0  0  0  0  0  0  0  0  0  0  0
  -40.2850    6.6410   68.9420 C   0  0  2  0  0  0  0  0  0  0  0  0
  -39.3910    5.4280   69.1550 C   0  0  0  0  0  0  0  0  0  0  0  0
  -38.9510    4.8100   68.1820 O   0  0  0  0  0  0  0  0  0  0  0  0
  -41.7500    6.1800   68.8440 C   0  0  2  0  0  0  0  0  0  0  0  0
  -41.9460    5.4060   67.6550 O   0  0  0  0  0  0  0  0  0  0  0  0
  -42.6850    7.3800   68.8440 C   0  0  0  0  0  0  0  0  0  0  0  0
  -41.3130   -1.1280   61.1480 N   0  0  0  0  0  0  0  0  0  0  0  0
  -41.1410    0.1730   60.5200 C   0  0  2  0  0  0  0  0  0  0  0  0
  -40.2460    1.0460   61.3870 C   0  0  0  0  0  0  0  0  0  0  0  0
  -40.4490    1.1410   62.6020 O   0  0  0  0  0  0  0  0  0  0  0  0
  -42.4950    0.8460   60.3140 C   0  0  0  0  0  0  0  0  0  0  0  0
  -42.4220    2.1380   59.5510 C   0  0  0  0  0  0  0  0  0  0  0  0
  -42.2040    2.1380   58.1870 C   0  0  0  0  0  0  0  0  0  0  0  0
  -42.5810    3.3450   60.1900 C   0  0  0  0  0  0  0  0  0  0  0  0
  -42.1340    3.3160   57.4880 C   0  0  0  0  0  0  0  0  0  0  0  0
  -42.5230    4.5240   59.4900 C   0  0  0  0  0  0  0  0  0  0  0  0
  -42.2970    4.5100   58.1430 C   0  0  0  0  0  0  0  0  0  0  0  0
  -39.2330    1.6520   60.7580 N   0  0  0  0  0  0  0  0  0  0  0  0
  -38.2560    2.5410   61.3900 C   0  0  2  0  0  0  0  0  0  0  0  0
  -37.4630    1.8540   62.5030 C   0  0  0  0  0  0  0  0  0  0  0  0
  -36.7620    2.5190   63.2780 O   0  0  0  0  0  0  0  0  0  0  0  0
  -38.9200    3.8200   61.9000 C   0  0  0  0  0  0  0  0  0  0  0  0
  -38.9840    4.8890   60.8340 C   0  0  0  0  0  0  0  0  0  0  0  0
  -38.6600    4.6290   59.6830 O   0  0  0  0  0  0  0  0  0  0  0  0
  -39.3940    6.0910   61.2000 N   0  0  0  0  0  0  0  0  0  0  0  0
  -34.8580   -1.2430   62.6020 N   0  0  0  0  0  0  0  0  0  0  0  0
  -34.2000   -2.2030   61.7250 C   0  0  2  0  0  0  0  0  0  0  0  0
  -33.0100   -2.8580   62.4030 C   0  0  0  0  0  0  0  0  0  0  0  0
  -32.2190   -2.2010   63.0920 O   0  0  0  0  0  0  0  0  0  0  0  0
  -33.7510   -1.5410   60.4340 C   0  0  0  0  0  0  0  0  0  0  0  0
  -34.8460   -0.7560   59.7690 C   0  0  0  0  0  0  0  0  0  0  0  0
  -35.8960   -1.3940   59.1380 C   0  0  0  0  0  0  0  0  0  0  0  0
  -34.8410    0.6320   59.8000 C   0  0  0  0  0  0  0  0  0  0  0  0
  -36.9090   -0.6730   58.5390 C   0  0  0  0  0  0  0  0  0  0  0  0
  -35.8330    1.3580   59.1980 C   0  0  0  0  0  0  0  0  0  0  0  0
  -36.8720    0.7060   58.5710 C   0  0  0  0  0  0  0  0  0  0  0  0
  -37.8810    1.4350   57.9740 O   0  0  0  0  0  0  0  0  0  0  0  0
  2  1  1  6
  3  2  1  0
  4  3  2  0
  5  2  1  0
  6  5  1  0
  7  6  1  0
  8  7  1  0
  9  8  1  0
 11 10  1  6
 12 11  1  0
 13 12  2  0
 14 11  1  0
 15 14  1  0
 16 15  2  0
 17 15  1  0
 18 16  1  0
 19 17  2  0
 20 19  1  0
 20 18  2  0
 21 20  1  0
 23 22  1  6
 24 23  1  0
 25 24  2  0
 26 23  1  0
 27 26  1  0
 28 27  1  0
 29 28  1  0
 30 29  1  0
 31 30  1  0
 32 30  2  0
 33 24  1  0
 34 33  1  0
 35 34  1  0
 36 35  2  0
 34 37  1  1
 38 37  1  0
 39 38  1  0
 40 38  1  0
 41 35  1  0
 42 41  1  0
 43 42  1  0
 44 43  2  0
 42 45  1  1
 46 45  1  0
 47 46  2  0
 48 46  1  0
 49 47  1  0
 50 48  2  0
 51 50  1  0
 51 49  2  0
 52 43  1  0
 53 52  1  0
 54 53  1  0
 55 54  2  0
 53 56  1  6
 57 56  1  0
 58 57  1  0
 59 58  1  0
 60 59  1  0
 61 60  1  0
 62 60  2  0
 63 54  1  0
 64 63  1  0
 65 64  1  0
 66 65  2  0
 64 67  1  1
 68 67  1  0
 69 68  1  0
 70 69  1  0
 71 70  1  0
 73 72  1  6
 74 73  1  0
 75 74  2  0
 76 73  1  0
 77 76  1  0
 78 77  2  0
 79 77  1  0
 80 78  1  0
 81 79  2  0
 82 81  1  0
 82 80  2  0
 83 82  1  0
 84 74  1  0
 85 84  1  0
 86 85  1  0
 87 86  2  0
 85 88  1  1
 89 88  1  0
 90 89  1  0
 91 90  2  0
 92 90  1  0
 93 86  1  0
 94 93  1  0
 95 94  1  0
 96 95  2  0
 94 97  1  6
 98 95  1  0
 99 98  1  0
100 99  1  0
101100  2  0
102100  1  0
103102  1  0
104103  1  0
105104  2  0
103106  1  6
107106  1  0
108104  1  0
109108  1  6
110109  1  0
111110  2  0
112109  1  0
113112  1  0
112114  1  6
116115  1  1
117116  1  0
118117  2  0
119116  1  0
120119  1  0
121120  2  0
122120  1  0
123121  1  0
124122  2  0
125124  1  0
125123  2  0
126117  1  0
127126  1  0
128127  1  0
129128  2  0
127130  1  1
131130  1  0
132131  2  0
133131  1  0
135134  1  1
136135  1  0
137136  2  0
138135  1  0
139138  1  0
140139  2  0
141139  1  0
142140  1  0
143141  2  0
144143  1  0
144142  2  0
145144  1  0
M  END
$$$$
