
     RDKit          3D

116114  0  0  0  0  0  0  0  0999 V2000
   -4.7080   27.0310  -20.3790 N   0  0  0  0  0  0  0  0  0  0  0  0
   -3.3350   27.5200  -20.3900 C   0  0  2  0  0  0  0  0  0  0  0  0
   -2.3810   26.3650  -20.1020 C   0  0  0  0  0  0  0  0  0  0  0  0
   -2.6960   25.4780  -19.3080 O   0  0  0  0  0  0  0  0  0  0  0  0
   -3.1500   28.6290  -19.3540 C   0  0  0  0  0  0  0  0  0  0  0  0
   -3.7190   29.9740  -19.7770 C   0  0  0  0  0  0  0  0  0  0  0  0
   -3.6740   30.9770  -18.6360 C   0  0  0  0  0  0  0  0  0  0  0  0
   -3.7790   32.3530  -19.1120 N   0  0  0  0  0  0  0  0  0  0  0  0
   -4.4260   33.3190  -18.4680 C   0  0  0  0  0  0  0  0  0  0  0  0
   -5.0290   33.0620  -17.3160 N   0  0  0  0  0  0  0  0  0  0  0  0
   -4.4700   34.5430  -18.9770 N   0  0  0  0  0  0  0  0  0  0  0  0
   -4.4820   39.6250  -29.0930 N   0  0  0  0  0  0  0  0  0  0  0  0
   -5.1560   38.9500  -28.0030 C   0  0  0  0  0  0  0  0  0  0  0  0
   -6.4150   38.2480  -28.4790 C   0  0  0  0  0  0  0  0  0  0  0  0
   -7.2970   38.8840  -29.0630 O   0  0  0  0  0  0  0  0  0  0  0  0
   -9.7740   36.8440  -27.5220 N   0  0  0  0  0  0  0  0  0  0  0  0
  -10.6970   36.9020  -26.4080 C   0  0  2  0  0  0  0  0  0  0  0  0
  -11.8150   35.8790  -26.5200 C   0  0  0  0  0  0  0  0  0  0  0  0
  -12.6680   35.8170  -25.6280 O   0  0  0  0  0  0  0  0  0  0  0  0
  -11.2250   38.3330  -26.2640 C   0  0  0  0  0  0  0  0  0  0  0  0
  -10.0820   39.2250  -25.8330 C   0  0  0  0  0  0  0  0  0  0  0  0
   -9.6190   39.2030  -24.5110 C   0  0  0  0  0  0  0  0  0  0  0  0
   -9.3990   40.0160  -26.7600 C   0  0  0  0  0  0  0  0  0  0  0  0
   -8.5420   39.9780  -24.1110 C   0  0  0  0  0  0  0  0  0  0  0  0
   -8.3100   40.7900  -26.3710 C   0  0  0  0  0  0  0  0  0  0  0  0
   -7.8880   40.7710  -25.0490 C   0  0  0  0  0  0  0  0  0  0  0  0
   -6.8150   41.5530  -24.6630 O   0  0  0  0  0  0  0  0  0  0  0  0
  -14.2610   34.7000  -17.6500 N   0  0  0  0  0  0  0  0  0  0  0  0
  -13.1180   35.5830  -17.8970 C   0  0  2  0  0  0  0  0  0  0  0  0
  -12.3120   35.0950  -19.1030 C   0  0  0  0  0  0  0  0  0  0  0  0
  -12.0960   33.8880  -19.2750 O   0  0  0  0  0  0  0  0  0  0  0  0
  -12.2130   35.6490  -16.6390 C   0  0  0  0  0  0  0  0  0  0  0  0
  -10.8050   36.2170  -16.8580 C   0  0  0  0  0  0  0  0  0  0  0  0
  -10.8440   37.7010  -17.1980 C   0  0  0  0  0  0  0  0  0  0  0  0
  -11.5100   38.4970  -16.5160 O   0  0  0  0  0  0  0  0  0  0  0  0
  -10.1500   38.0780  -18.2730 N   0  0  0  0  0  0  0  0  0  0  0  0
  -11.8440   36.0320  -19.9270 N   0  0  0  0  0  0  0  0  0  0  0  0
  -11.0970   35.6640  -21.1240 C   0  0  2  0  0  0  0  0  0  0  0  0
   -9.6440   35.3070  -20.8020 C   0  0  0  0  0  0  0  0  0  0  0  0
   -9.0430   35.8380  -19.8720 O   0  0  0  0  0  0  0  0  0  0  0  0
  -11.1210   36.8080  -22.1370 C   0  0  0  0  0  0  0  0  0  0  0  0
  -10.1980   36.5470  -23.1820 O   0  0  0  0  0  0  0  0  0  0  0  0
   -9.0710   34.4010  -21.5930 N   0  0  0  0  0  0  0  0  0  0  0  0
   -7.6480   34.1230  -21.4420 C   0  0  2  0  0  0  0  0  0  0  0  0
   -6.7820   35.1660  -22.1390 C   0  0  0  0  0  0  0  0  0  0  0  0
   -5.6160   35.3570  -21.7560 O   0  0  0  0  0  0  0  0  0  0  0  0
   -7.2930   32.7540  -22.0110 C   0  0  0  0  0  0  0  0  0  0  0  0
   -7.6300   31.5630  -21.1600 C   0  0  0  0  0  0  0  0  0  0  0  0
   -6.9430   31.3130  -19.9640 C   0  0  0  0  0  0  0  0  0  0  0  0
   -8.6180   30.6600  -21.5610 C   0  0  0  0  0  0  0  0  0  0  0  0
   -7.2300   30.1950  -19.1910 C   0  0  0  0  0  0  0  0  0  0  0  0
   -8.9120   29.5360  -20.7950 C   0  0  0  0  0  0  0  0  0  0  0  0
   -8.2080   29.3090  -19.6160 C   0  0  0  0  0  0  0  0  0  0  0  0
   -8.4940   28.1900  -18.8670 O   0  0  0  0  0  0  0  0  0  0  0  0
   -7.3190   35.8170  -23.1690 N   0  0  0  0  0  0  0  0  0  0  0  0
   -6.5630   36.8180  -23.9090 C   0  0  0  0  0  0  0  0  0  0  0  0
   -5.2760   36.2940  -24.5010 C   0  0  0  0  0  0  0  0  0  0  0  0
   -4.2350   36.9580  -24.4000 O   0  0  0  0  0  0  0  0  0  0  0  0
   -5.3140   35.1060  -25.1070 N   0  0  0  0  0  0  0  0  0  0  0  0
   -4.0930   34.4840  -25.6080 C   0  0  2  0  0  0  0  0  0  0  0  0
   -3.4340   35.3770  -26.6420 C   0  0  0  0  0  0  0  0  0  0  0  0
   -4.1090   35.9330  -27.5130 O   0  0  0  0  0  0  0  0  0  0  0  0
   -4.3950   33.1220  -26.2280 C   0  0  0  0  0  0  0  0  0  0  0  0
   -4.8240   32.0830  -25.2380 C   0  0  0  0  0  0  0  0  0  0  0  0
   -3.9770   31.6970  -24.1970 C   0  0  0  0  0  0  0  0  0  0  0  0
   -6.0780   31.4870  -25.3440 C   0  0  0  0  0  0  0  0  0  0  0  0
   -4.3630   30.7220  -23.3000 C   0  0  0  0  0  0  0  0  0  0  0  0
   -6.4820   30.5210  -24.4380 C   0  0  0  0  0  0  0  0  0  0  0  0
   -5.6250   30.1320  -23.4150 C   0  0  0  0  0  0  0  0  0  0  0  0
   -2.1130   35.5130  -26.5340 N   0  0  0  0  0  0  0  0  0  0  0  0
   -1.2840   36.3100  -27.4220 C   0  0  2  0  0  0  0  0  0  0  0  0
   -0.0500   35.4750  -27.7170 C   0  0  0  0  0  0  0  0  0  0  0  0
    0.4310   34.7520  -26.8340 O   0  0  0  0  0  0  0  0  0  0  0  0
   -0.8460   37.6410  -26.7990 C   0  0  0  0  0  0  0  0  0  0  0  0
   -1.7430   38.8310  -27.0660 C   0  0  0  0  0  0  0  0  0  0  0  0
   -1.2090   40.1030  -26.4080 C   0  0  0  0  0  0  0  0  0  0  0  0
   -1.6880   40.5230  -25.3530 O   0  0  0  0  0  0  0  0  0  0  0  0
   -0.2000   40.7060  -27.0230 N   0  0  0  0  0  0  0  0  0  0  0  0
    2.9570   36.2970  -27.8450 N   0  0  0  0  0  0  0  0  0  0  0  0
    4.0930   36.6770  -27.0080 C   0  0  2  0  0  0  0  0  0  0  0  0
    3.9070   36.3430  -25.5220 C   0  0  0  0  0  0  0  0  0  0  0  0
    4.7910   36.6720  -24.7230 O   0  0  0  0  0  0  0  0  0  0  0  0
    4.3970   38.1750  -27.1540 C   0  0  2  0  0  0  0  0  0  0  0  0
    3.2150   38.9380  -26.9020 O   0  0  0  0  0  0  0  0  0  0  0  0
    4.8870   38.4870  -28.5520 C   0  0  0  0  0  0  0  0  0  0  0  0
    2.8010   35.7060  -25.1250 N   0  0  0  0  0  0  0  0  0  0  0  0
    2.6880   35.2010  -23.7580 C   0  0  2  0  0  0  0  0  0  0  0  0
    3.7790   34.1680  -23.4960 C   0  0  0  0  0  0  0  0  0  0  0  0
    4.2180   33.4600  -24.4080 O   0  0  0  0  0  0  0  0  0  0  0  0
    1.3230   34.5350  -23.5220 C   0  0  0  0  0  0  0  0  0  0  0  0
    0.1630   35.5090  -23.5520 C   0  0  0  0  0  0  0  0  0  0  0  0
   -0.9740   35.0990  -23.7480 O   0  0  0  0  0  0  0  0  0  0  0  0
    0.4330   36.7890  -23.3240 N   0  0  0  0  0  0  0  0  0  0  0  0
    4.2010   34.0550  -22.2350 N   0  0  0  0  0  0  0  0  0  0  0  0
    5.0510   32.9360  -21.8600 C   0  0  0  0  0  0  0  0  0  0  0  0
    4.4040   31.6060  -22.2070 C   0  0  0  0  0  0  0  0  0  0  0  0
    3.1730   31.4760  -22.2550 O   0  0  0  0  0  0  0  0  0  0  0  0
    5.2510   30.5990  -22.4490 N   0  0  0  0  0  0  0  0  0  0  0  0
    4.7570   29.3050  -22.9220 C   0  0  2  0  0  0  0  0  0  0  0  0
    3.7570   28.6990  -21.9340 C   0  0  0  0  0  0  0  0  0  0  0  0
    2.7680   28.0730  -22.3420 O   0  0  0  0  0  0  0  0  0  0  0  0
    5.9350   28.3490  -23.2150 C   0  0  0  0  0  0  0  0  0  0  0  0
    6.7380   28.0860  -21.9730 C   0  0  0  0  0  0  0  0  0  0  0  0
    5.4240   27.0400  -23.7690 C   0  0  0  0  0  0  0  0  0  0  0  0
    1.5800   30.2670  -20.3830 N   0  0  0  0  0  0  0  0  0  0  0  0
    0.3240   30.9910  -20.5470 C   0  0  2  0  0  0  0  0  0  0  0  0
   -0.2540   30.8450  -21.9540 C   0  0  0  0  0  0  0  0  0  0  0  0
   -1.3230   31.3900  -22.2380 O   0  0  0  0  0  0  0  0  0  0  0  0
    0.5310   32.4690  -20.1960 C   0  0  0  0  0  0  0  0  0  0  0  0
    0.9220   32.6350  -18.7430 C   0  0  0  0  0  0  0  0  0  0  0  0
    2.2540   32.5250  -18.3430 C   0  0  0  0  0  0  0  0  0  0  0  0
   -0.0430   32.8540  -17.7620 C   0  0  0  0  0  0  0  0  0  0  0  0
    2.6140   32.6470  -17.0130 C   0  0  0  0  0  0  0  0  0  0  0  0
    0.3020   32.9720  -16.4450 C   0  0  0  0  0  0  0  0  0  0  0  0
    1.6290   32.8660  -16.0670 C   0  0  0  0  0  0  0  0  0  0  0  0
    1.9640   33.0000  -14.7420 O   0  0  0  0  0  0  0  0  0  0  0  0
  2  1  1  1
  3  2  1  0
  4  3  2  0
  5  2  1  0
  6  5  1  0
  7  6  1  0
  8  7  1  0
  9  8  1  0
 10  9  1  0
 11  9  2  0
 13 12  1  0
 14 13  1  0
 15 14  2  0
 17 16  1  6
 18 17  1  0
 19 18  2  0
 20 17  1  0
 21 20  1  0
 22 21  2  0
 23 21  1  0
 24 22  1  0
 25 23  2  0
 26 25  1  0
 26 24  2  0
 27 26  1  0
 29 28  1  1
 30 29  1  0
 31 30  2  0
 32 29  1  0
 33 32  1  0
 34 33  1  0
 35 34  2  0
 36 34  1  0
 37 30  1  0
 38 37  1  0
 39 38  1  0
 40 39  2  0
 38 41  1  6
 42 41  1  0
 43 39  1  0
 44 43  1  0
 45 44  1  0
 46 45  2  0
 44 47  1  6
 48 47  1  0
 49 48  2  0
 50 48  1  0
 51 49  1  0
 52 50  2  0
 53 52  1  0
 53 51  2  0
 54 53  1  0
 55 45  1  0
 56 55  1  0
 57 56  1  0
 58 57  2  0
 59 57  1  0
 60 59  1  0
 61 60  1  0
 62 61  2  0
 60 63  1  6
 64 63  1  0
 65 64  2  0
 66 64  1  0
 67 65  1  0
 68 66  2  0
 69 68  1  0
 69 67  2  0
 70 61  1  0
 71 70  1  0
 72 71  1  0
 73 72  2  0
 71 74  1  1
 75 74  1  0
 76 75  1  0
 77 76  2  0
 78 76  1  0
 80 79  1  6
 81 80  1  0
 82 81  2  0
 83 80  1  0
 84 83  1  0
 83 85  1  6
 86 81  1  0
 87 86  1  0
 88 87  1  0
 89 88  2  0
 87 90  1  6
 91 90  1  0
 92 91  2  0
 93 91  1  0
 94 88  1  0
 95 94  1  0
 96 95  1  0
 97 96  2  0
 98 96  1  0
 99 98  1  1
100 99  1  0
101100  2  0
102 99  1  0
103102  1  0
104102  1  0
106105  1  6
107106  1  0
108107  2  0
109106  1  0
110109  1  0
111110  2  0
112110  1  0
113111  1  0
114112  2  0
115113  2  0
115114  1  0
116115  1  0
M  END
$$$$
