
     RDKit          3D

150150  0  0  0  0  0  0  0  0999 V2000
   -8.5360   26.9600  -10.3650 N   0  0  0  0  0  0  0  0  0  0  0  0
   -9.7000   27.5780  -11.0000 C   0  0  2  0  0  0  0  0  0  0  0  0
  -10.2930   26.6710  -12.0710 C   0  0  0  0  0  0  0  0  0  0  0  0
  -11.5220   26.6410  -12.2560 O   0  0  0  0  0  0  0  0  0  0  0  0
   -9.3240   28.9460  -11.5830 C   0  0  0  0  0  0  0  0  0  0  0  0
   -9.5570   30.1240  -10.6160 C   0  0  0  0  0  0  0  0  0  0  0  0
   -8.4880   31.2390  -10.6860 C   0  0  0  0  0  0  0  0  0  0  0  0
   -8.1560   31.6850  -12.0950 C   0  0  0  0  0  0  0  0  0  0  0  0
   -7.5080   33.0550  -12.1900 N   0  0  0  0  0  0  0  0  0  0  0  0
  -13.8190   24.9450  -11.0350 N   0  0  0  0  0  0  0  0  0  0  0  0
  -14.9530   25.6480  -11.6430 C   0  0  2  0  0  0  0  0  0  0  0  0
  -15.1980   25.3400  -13.1120 C   0  0  0  0  0  0  0  0  0  0  0  0
  -16.1340   25.9050  -13.6860 O   0  0  0  0  0  0  0  0  0  0  0  0
  -14.7880   27.1710  -11.4980 C   0  0  0  0  0  0  0  0  0  0  0  0
  -14.4140   27.5650  -10.0940 C   0  0  0  0  0  0  0  0  0  0  0  0
  -15.0160   26.9460   -9.0010 C   0  0  0  0  0  0  0  0  0  0  0  0
  -13.4600   28.5480   -9.8550 C   0  0  0  0  0  0  0  0  0  0  0  0
  -14.6680   27.2860   -7.7150 C   0  0  0  0  0  0  0  0  0  0  0  0
  -13.1100   28.9020   -8.5530 C   0  0  0  0  0  0  0  0  0  0  0  0
  -13.7120   28.2660   -7.4910 C   0  0  0  0  0  0  0  0  0  0  0  0
  -13.3630   28.6040   -6.1960 O   0  0  0  0  0  0  0  0  0  0  0  0
  -12.8430   30.9710  -19.4130 N   0  0  0  0  0  0  0  0  0  0  0  0
  -13.0090   29.9960  -18.3510 C   0  0  2  0  0  0  0  0  0  0  0  0
  -13.8680   30.6410  -17.2830 C   0  0  0  0  0  0  0  0  0  0  0  0
  -13.9530   31.8700  -17.2060 O   0  0  0  0  0  0  0  0  0  0  0  0
  -11.6660   29.5430  -17.7670 C   0  0  0  0  0  0  0  0  0  0  0  0
  -10.9960   30.5910  -16.8980 C   0  0  0  0  0  0  0  0  0  0  0  0
  -10.2260   31.6040  -17.4690 C   0  0  0  0  0  0  0  0  0  0  0  0
  -11.1350   30.5680  -15.4970 C   0  0  0  0  0  0  0  0  0  0  0  0
   -9.6090   32.5600  -16.6890 C   0  0  0  0  0  0  0  0  0  0  0  0
  -10.5200   31.5280  -14.7000 C   0  0  0  0  0  0  0  0  0  0  0  0
   -9.7500   32.5230  -15.3110 C   0  0  0  0  0  0  0  0  0  0  0  0
   -9.1270   33.4950  -14.5590 O   0  0  0  0  0  0  0  0  0  0  0  0
  -14.5330   29.8100  -16.4760 N   0  0  0  0  0  0  0  0  0  0  0  0
  -15.3920   30.3400  -15.4290 C   0  0  2  0  0  0  0  0  0  0  0  0
  -14.5260   30.7750  -14.2500 C   0  0  0  0  0  0  0  0  0  0  0  0
  -13.7700   29.9720  -13.6960 O   0  0  0  0  0  0  0  0  0  0  0  0
  -16.4290   29.3170  -14.9720 C   0  0  0  0  0  0  0  0  0  0  0  0
  -17.2880   29.8490  -13.7930 C   0  0  0  0  0  0  0  0  0  0  0  0
  -18.4860   28.9400  -13.4800 C   0  0  0  0  0  0  0  0  0  0  0  0
  -19.1490   28.5140  -14.7050 N   0  0  0  0  0  0  0  0  0  0  0  0
  -20.0960   29.2120  -15.3250 C   0  0  0  0  0  0  0  0  0  0  0  0
  -20.5230   30.3590  -14.8230 N   0  0  0  0  0  0  0  0  0  0  0  0
  -20.6240   28.7490  -16.4380 N   0  0  0  0  0  0  0  0  0  0  0  0
  -14.6510   32.0380  -13.8560 N   0  0  0  0  0  0  0  0  0  0  0  0
  -13.8440   32.5800  -12.7780 C   0  0  2  0  0  0  0  0  0  0  0  0
  -14.5970   32.6370  -11.4570 C   0  0  0  0  0  0  0  0  0  0  0  0
  -14.0210   32.2960  -10.4210 O   0  0  0  0  0  0  0  0  0  0  0  0
  -13.3240   33.9720  -13.1640 C   0  0  0  0  0  0  0  0  0  0  0  0
  -12.7320   34.9250  -12.1110 C   0  0  0  0  0  0  0  0  0  0  0  0
  -11.5010   34.3160  -11.4150 C   0  0  0  0  0  0  0  0  0  0  0  0
  -12.3780   36.2930  -12.7500 C   0  0  0  0  0  0  0  0  0  0  0  0
  -15.8800   33.0200  -11.4630 N   0  0  0  0  0  0  0  0  0  0  0  0
  -16.6640   33.1210  -10.2370 C   0  0  2  0  0  0  0  0  0  0  0  0
  -17.6180   31.9370  -10.1070 C   0  0  0  0  0  0  0  0  0  0  0  0
  -18.3630   31.6270  -11.0430 O   0  0  0  0  0  0  0  0  0  0  0  0
  -17.4320   34.4470  -10.1980 C   0  0  0  0  0  0  0  0  0  0  0  0
  -16.5310   35.6560  -10.1600 C   0  0  0  0  0  0  0  0  0  0  0  0
  -15.8430   35.9940   -8.9960 C   0  0  0  0  0  0  0  0  0  0  0  0
  -16.3300   36.4280  -11.2960 C   0  0  0  0  0  0  0  0  0  0  0  0
  -14.9940   37.1070   -8.9650 C   0  0  0  0  0  0  0  0  0  0  0  0
  -15.4810   37.5350  -11.2690 C   0  0  0  0  0  0  0  0  0  0  0  0
  -14.8090   37.8720  -10.1010 C   0  0  0  0  0  0  0  0  0  0  0  0
  -17.5970   31.2840   -8.9430 N   0  0  0  0  0  0  0  0  0  0  0  0
  -18.5270   30.2040   -8.6280 C   0  0  2  0  0  0  0  0  0  0  0  0
  -18.4630   29.9260   -7.1360 C   0  0  0  0  0  0  0  0  0  0  0  0
  -17.3680   29.8640   -6.5660 O   0  0  0  0  0  0  0  0  0  0  0  0
  -18.2040   28.9250   -9.4060 C   0  0  0  0  0  0  0  0  0  0  0  0
  -19.3910   27.9660   -9.4790 C   0  0  0  0  0  0  0  0  0  0  0  0
  -19.0540   26.7070  -10.2550 C   0  0  0  0  0  0  0  0  0  0  0  0
  -20.2690   26.1360  -10.7990 N   0  0  0  0  0  0  0  0  0  0  0  0
  -20.9490   25.1400  -10.2410 C   0  0  0  0  0  0  0  0  0  0  0  0
  -20.5290   24.5540   -9.1230 N   0  0  0  0  0  0  0  0  0  0  0  0
  -22.0540   24.7220  -10.8250 N   0  0  0  0  0  0  0  0  0  0  0  0
  -19.6310   29.7410   -6.5040 N   0  0  0  0  0  0  0  0  0  0  0  0
  -19.6330   29.6700   -5.0450 C   0  0  2  0  0  0  0  0  0  0  0  0
  -19.1900   28.3140   -4.5260 C   0  0  0  0  0  0  0  0  0  0  0  0
  -18.8150   28.2110   -3.3540 O   0  0  0  0  0  0  0  0  0  0  0  0
  -21.0150   30.0370   -4.4770 C   0  0  0  0  0  0  0  0  0  0  0  0
  -21.5700   31.3080   -5.1370 C   0  0  0  0  0  0  0  0  0  0  0  0
  -22.3170   32.2830   -4.2130 C   0  0  0  0  0  0  0  0  0  0  0  0
  -22.6370   33.6000   -4.9830 C   0  0  0  0  0  0  0  0  0  0  0  0
  -23.8170   34.3610   -4.4480 N   0  0  0  0  0  0  0  0  0  0  0  0
  -22.9460   37.0250  -11.3960 N   0  0  0  0  0  0  0  0  0  0  0  0
  -22.5270   36.4800  -10.1100 C   0  0  2  0  0  0  0  0  0  0  0  0
  -22.7090   37.5050   -9.0010 C   0  0  0  0  0  0  0  0  0  0  0  0
  -22.2190   38.6300   -9.1080 O   0  0  0  0  0  0  0  0  0  0  0  0
  -21.0630   36.0730  -10.1900 C   0  0  0  0  0  0  0  0  0  0  0  0
  -20.5060   35.3920   -8.9720 C   0  0  0  0  0  0  0  0  0  0  0  0
  -20.7080   34.0300   -8.7620 C   0  0  0  0  0  0  0  0  0  0  0  0
  -19.7320   36.1010   -8.0540 C   0  0  0  0  0  0  0  0  0  0  0  0
  -20.1800   33.3940   -7.6630 C   0  0  0  0  0  0  0  0  0  0  0  0
  -19.1740   35.4640   -6.9410 C   0  0  0  0  0  0  0  0  0  0  0  0
  -19.4040   34.1120   -6.7540 C   0  0  0  0  0  0  0  0  0  0  0  0
  -18.8690   33.4750   -5.6610 O   0  0  0  0  0  0  0  0  0  0  0  0
  -23.3750   37.0960   -7.9230 N   0  0  0  0  0  0  0  0  0  0  0  0
  -23.6790   37.9750   -6.7970 C   0  0  2  0  0  0  0  0  0  0  0  0
  -22.5730   37.8430   -5.7610 C   0  0  0  0  0  0  0  0  0  0  0  0
  -22.5790   36.9250   -4.9360 O   0  0  0  0  0  0  0  0  0  0  0  0
  -25.0350   37.6200   -6.2000 C   0  0  0  0  0  0  0  0  0  0  0  0
  -25.6500   38.7260   -5.3590 C   0  0  0  0  0  0  0  0  0  0  0  0
  -26.9020   38.2750   -4.6140 C   0  0  0  0  0  0  0  0  0  0  0  0
  -27.8330   37.7130   -5.2080 O   0  0  0  0  0  0  0  0  0  0  0  0
  -26.9310   38.5260   -3.3060 N   0  0  0  0  0  0  0  0  0  0  0  0
  -21.6280   38.7740   -5.7850 N   0  0  0  0  0  0  0  0  0  0  0  0
  -20.5160   38.7580   -4.8500 C   0  0  2  0  0  0  0  0  0  0  0  0
  -20.8160   39.5310   -3.5780 C   0  0  0  0  0  0  0  0  0  0  0  0
  -19.9230   39.6740   -2.7330 O   0  0  0  0  0  0  0  0  0  0  0  0
  -19.2560   39.3230   -5.5200 C   0  0  0  0  0  0  0  0  0  0  0  0
  -22.0450   40.0290   -3.4280 N   0  0  0  0  0  0  0  0  0  0  0  0
  -22.4670   40.8010   -2.2740 C   0  0  0  0  0  0  0  0  0  0  0  0
  -23.8490   40.3980   -1.7960 C   0  0  0  0  0  0  0  0  0  0  0  0
  -24.3680   39.3600   -2.2160 O   0  0  0  0  0  0  0  0  0  0  0  0
  -24.4500   41.2070   -0.9160 N   0  0  0  0  0  0  0  0  0  0  0  0
  -25.7860   40.9210   -0.3890 C   0  0  2  0  0  0  0  0  0  0  0  0
  -26.9050   41.4010   -1.3160 C   0  0  0  0  0  0  0  0  0  0  0  0
  -28.0140   40.8600   -1.2660 O   0  0  0  0  0  0  0  0  0  0  0  0
  -25.9480   41.5710    0.9910 C   0  0  0  0  0  0  0  0  0  0  0  0
  -25.9080   42.9920    0.8890 O   0  0  0  0  0  0  0  0  0  0  0  0
  -21.1470   46.7770   -9.5330 N   0  0  0  0  0  0  0  0  0  0  0  0
  -20.3810   46.5050   -8.3280 C   0  0  2  0  0  0  0  0  0  0  0  0
  -20.9520   45.2810   -7.6260 C   0  0  0  0  0  0  0  0  0  0  0  0
  -22.1630   45.1830   -7.4140 O   0  0  0  0  0  0  0  0  0  0  0  0
  -20.3820   47.7170   -7.3920 C   0  0  0  0  0  0  0  0  0  0  0  0
  -19.4450   47.5610   -6.2420 C   0  0  0  0  0  0  0  0  0  0  0  0
  -18.0870   47.7750   -6.4120 C   0  0  0  0  0  0  0  0  0  0  0  0
  -19.9060   47.1220   -5.0080 C   0  0  0  0  0  0  0  0  0  0  0  0
  -17.2110   47.5960   -5.3600 C   0  0  0  0  0  0  0  0  0  0  0  0
  -19.0330   46.9370   -3.9510 C   0  0  0  0  0  0  0  0  0  0  0  0
  -17.6860   47.1730   -4.1230 C   0  0  0  0  0  0  0  0  0  0  0  0
  -20.0780   44.3320   -7.2980 N   0  0  0  0  0  0  0  0  0  0  0  0
  -20.4330   43.0430   -6.7060 C   0  0  2  0  0  0  0  0  0  0  0  0
  -21.3280   42.1920   -7.6030 C   0  0  0  0  0  0  0  0  0  0  0  0
  -21.9260   41.2300   -7.1220 O   0  0  0  0  0  0  0  0  0  0  0  0
  -21.1140   43.2020   -5.3400 C   0  0  0  0  0  0  0  0  0  0  0  0
  -20.1530   43.6700   -4.2440 C   0  0  0  0  0  0  0  0  0  0  0  0
  -18.9240   43.7230   -4.4280 O   0  0  0  0  0  0  0  0  0  0  0  0
  -20.7150   44.0100   -3.0920 N   0  0  0  0  0  0  0  0  0  0  0  0
  -20.9400   40.3750  -11.2600 N   0  0  0  0  0  0  0  0  0  0  0  0
  -19.9070   40.1600  -12.2700 C   0  0  2  0  0  0  0  0  0  0  0  0
  -20.3110   39.0930  -13.2790 C   0  0  0  0  0  0  0  0  0  0  0  0
  -20.8830   38.0540  -12.9160 O   0  0  0  0  0  0  0  0  0  0  0  0
  -18.5850   39.7590  -11.5990 C   0  0  0  0  0  0  0  0  0  0  0  0
  -18.1230   40.7580  -10.5610 C   0  0  0  0  0  0  0  0  0  0  0  0
  -17.8680   42.0690  -10.9280 C   0  0  0  0  0  0  0  0  0  0  0  0
  -17.9560   40.4000   -9.2310 C   0  0  0  0  0  0  0  0  0  0  0  0
  -17.4660   42.9960  -10.0190 C   0  0  0  0  0  0  0  0  0  0  0  0
  -17.5390   41.3350   -8.2970 C   0  0  0  0  0  0  0  0  0  0  0  0
  -17.2950   42.6370   -8.7040 C   0  0  0  0  0  0  0  0  0  0  0  0
  -16.8810   43.6040   -7.8060 O   0  0  0  0  0  0  0  0  0  0  0  0
  2  1  1  6
  3  2  1  0
  4  3  2  0
  5  2  1  0
  6  5  1  0
  7  6  1  0
  8  7  1  0
  9  8  1  0
 11 10  1  6
 12 11  1  0
 13 12  2  0
 14 11  1  0
 15 14  1  0
 16 15  2  0
 17 15  1  0
 18 16  1  0
 19 17  2  0
 20 19  1  0
 20 18  2  0
 21 20  1  0
 23 22  1  6
 24 23  1  0
 25 24  2  0
 26 23  1  0
 27 26  1  0
 28 27  2  0
 29 27  1  0
 30 28  1  0
 31 29  2  0
 32 30  2  0
 32 31  1  0
 33 32  1  0
 34 24  1  0
 35 34  1  0
 36 35  1  0
 37 36  2  0
 35 38  1  1
 39 38  1  0
 40 39  1  0
 41 40  1  0
 42 41  1  0
 43 42  1  0
 44 42  2  0
 45 36  1  0
 46 45  1  0
 47 46  1  0
 48 47  2  0
 46 49  1  6
 50 49  1  0
 51 50  1  0
 52 50  1  0
 53 47  1  0
 54 53  1  0
 55 54  1  0
 56 55  2  0
 54 57  1  6
 58 57  1  0
 59 58  2  0
 60 58  1  0
 61 59  1  0
 62 60  2  0
 63 62  1  0
 63 61  2  0
 64 55  1  0
 65 64  1  0
 66 65  1  0
 67 66  2  0
 65 68  1  6
 69 68  1  0
 70 69  1  0
 71 70  1  0
 72 71  1  0
 73 72  1  0
 74 72  2  0
 75 66  1  0
 76 75  1  0
 77 76  1  0
 78 77  2  0
 76 79  1  6
 80 79  1  0
 81 80  1  0
 82 81  1  0
 83 82  1  0
 85 84  1  6
 86 85  1  0
 87 86  2  0
 88 85  1  0
 89 88  1  0
 90 89  2  0
 91 89  1  0
 92 90  1  0
 93 91  2  0
 94 93  1  0
 94 92  2  0
 95 94  1  0
 96 86  1  0
 97 96  1  0
 98 97  1  0
 99 98  2  0
 97100  1  1
101100  1  0
102101  1  0
103102  2  0
104102  1  0
105 98  1  0
106105  1  0
107106  1  0
108107  2  0
106109  1  6
110107  1  0
111110  1  0
112111  1  0
113112  2  0
114112  1  0
115114  1  0
116115  1  0
117116  2  0
115118  1  1
119118  1  0
121120  1  6
122121  1  0
123122  2  0
124121  1  0
125124  1  0
126125  2  0
127125  1  0
128126  1  0
129127  2  0
130129  1  0
130128  2  0
131122  1  0
132131  1  0
133132  1  0
134133  2  0
132135  1  1
136135  1  0
137136  2  0
138136  1  0
140139  1  1
141140  1  0
142141  2  0
143140  1  0
144143  1  0
145144  2  0
146144  1  0
147145  1  0
148146  2  0
149148  1  0
149147  2  0
150149  1  0
M  END
$$$$
