
     RDKit          3D

137135  0  0  0  0  0  0  0  0999 V2000
  -63.2060    5.1500   14.0790 N   0  0  0  0  0  0  0  0  0  0  0  0
  -62.3240    6.3020   14.1880 C   0  0  2  0  0  0  0  0  0  0  0  0
  -62.7700    7.4380   13.2700 C   0  0  0  0  0  0  0  0  0  0  0  0
  -63.4630    7.2040   12.3460 O   0  0  0  0  0  0  0  0  0  0  0  0
  -60.8460    5.9530   14.1380 C   0  0  0  0  0  0  0  0  0  0  0  0
  -60.2630    5.7220   12.7820 C   0  0  0  0  0  0  0  0  0  0  0  0
  -58.8460    5.2560   12.9150 C   0  0  0  0  0  0  0  0  0  0  0  0
  -58.2190    5.1250   11.6260 N   0  0  0  0  0  0  0  0  0  0  0  0
  -57.7610    6.1360   10.9270 C   0  0  0  0  0  0  0  0  0  0  0  0
  -57.2150    5.9340    9.7810 N   0  0  0  0  0  0  0  0  0  0  0  0
  -57.8420    7.3480   11.3850 N   0  0  0  0  0  0  0  0  0  0  0  0
  -62.7330    7.5020    9.4760 N   0  0  0  0  0  0  0  0  0  0  0  0
  -63.5360    6.4510    8.8610 C   0  0  2  0  0  0  0  0  0  0  0  0
  -65.0030    6.8210    8.7440 C   0  0  0  0  0  0  0  0  0  0  0  0
  -65.7620    6.0850    8.0950 O   0  0  0  0  0  0  0  0  0  0  0  0
  -63.4060    5.1380    9.6550 C   0  0  0  0  0  0  0  0  0  0  0  0
  -62.0360    4.4980    9.5450 C   0  0  0  0  0  0  0  0  0  0  0  0
  -61.8050    3.3990   10.5730 C   0  0  0  0  0  0  0  0  0  0  0  0
  -62.4100    3.4270   11.6690 O   0  0  0  0  0  0  0  0  0  0  0  0
  -61.0000    2.4970   10.2930 O   0  0  0  0  0  0  0  0  0  0  0  0
  -61.5770   -0.1810    4.8530 N   0  0  0  0  0  0  0  0  0  0  0  0
  -61.6650   -1.2890    5.7900 C   0  0  2  0  0  0  0  0  0  0  0  0
  -63.0130   -1.3370    6.4900 C   0  0  0  0  0  0  0  0  0  0  0  0
  -63.5250   -2.4310    6.7570 O   0  0  0  0  0  0  0  0  0  0  0  0
  -60.5170   -1.2170    6.8030 C   0  0  0  0  0  0  0  0  0  0  0  0
  -59.1570   -1.5640    6.1830 C   0  0  0  0  0  0  0  0  0  0  0  0
  -58.0550   -1.6320    7.2230 C   0  0  0  0  0  0  0  0  0  0  0  0
  -57.4660   -0.2340    7.4950 C   0  0  0  0  0  0  0  0  0  0  0  0
  -56.5450   -0.2580    8.6750 N   0  0  0  0  0  0  0  0  0  0  0  0
  -58.9220   -0.5220   24.5650 N   0  0  0  0  0  0  0  0  0  0  0  0
  -58.7730   -1.5770   23.5670 C   0  0  2  0  0  0  0  0  0  0  0  0
  -60.0270   -2.4110   23.3660 C   0  0  0  0  0  0  0  0  0  0  0  0
  -59.9670   -3.4370   22.6890 O   0  0  0  0  0  0  0  0  0  0  0  0
  -57.5920   -2.4610   23.9390 C   0  0  0  0  0  0  0  0  0  0  0  0
  -56.3220   -1.6650   23.8040 C   0  0  0  0  0  0  0  0  0  0  0  0
  -55.7780   -1.4130   22.5490 C   0  0  0  0  0  0  0  0  0  0  0  0
  -55.7110   -1.0860   24.9200 C   0  0  0  0  0  0  0  0  0  0  0  0
  -54.6280   -0.6560   22.3980 C   0  0  0  0  0  0  0  0  0  0  0  0
  -54.5550   -0.3170   24.7790 C   0  0  0  0  0  0  0  0  0  0  0  0
  -54.0230   -0.1090   23.5110 C   0  0  0  0  0  0  0  0  0  0  0  0
  -52.8890    0.6460   23.3480 O   0  0  0  0  0  0  0  0  0  0  0  0
  -62.4050   -3.8690   15.1780 N   0  0  0  0  0  0  0  0  0  0  0  0
  -62.9110   -3.8670   13.8150 C   0  0  2  0  0  0  0  0  0  0  0  0
  -62.2440   -4.9820   13.0180 C   0  0  0  0  0  0  0  0  0  0  0  0
  -61.1070   -5.3940   13.3090 O   0  0  0  0  0  0  0  0  0  0  0  0
  -62.6730   -2.5180   13.1310 C   0  0  0  0  0  0  0  0  0  0  0  0
  -61.2310   -2.2410   12.8450 C   0  0  0  0  0  0  0  0  0  0  0  0
  -60.3730   -1.7450   13.8400 C   0  0  0  0  0  0  0  0  0  0  0  0
  -60.7070   -2.5010   11.5870 C   0  0  0  0  0  0  0  0  0  0  0  0
  -59.0350   -1.4930   13.5650 C   0  0  0  0  0  0  0  0  0  0  0  0
  -59.3830   -2.2580   11.3050 C   0  0  0  0  0  0  0  0  0  0  0  0
  -58.5510   -1.7540   12.2870 C   0  0  0  0  0  0  0  0  0  0  0  0
  -57.2360   -1.5180   11.9530 O   0  0  0  0  0  0  0  0  0  0  0  0
  -57.8900   -4.0200   17.3880 N   0  0  0  0  0  0  0  0  0  0  0  0
  -58.4790   -3.0360   18.2210 C   0  0  2  0  0  0  0  0  0  0  0  0
  -57.9430   -1.6570   17.9620 C   0  0  0  0  0  0  0  0  0  0  0  0
  -56.7980   -1.4840   17.6980 O   0  0  0  0  0  0  0  0  0  0  0  0
  -58.3370   -3.4330   19.6770 C   0  0  0  0  0  0  0  0  0  0  0  0
  -57.2940   -2.7850   20.3070 O   0  0  0  0  0  0  0  0  0  0  0  0
  -58.8380   -0.6980   17.9270 N   0  0  0  0  0  0  0  0  0  0  0  0
  -58.4270    0.6700   17.8690 C   0  0  2  0  0  0  0  0  0  0  0  0
  -57.8430    0.9760   19.2520 C   0  0  0  0  0  0  0  0  0  0  0  0
  -58.3990    0.5520   20.2550 O   0  0  0  0  0  0  0  0  0  0  0  0
  -59.6190    1.5800   17.7350 C   0  0  0  0  0  0  0  0  0  0  0  0
  -60.4700    1.4640   16.5360 C   0  0  0  0  0  0  0  0  0  0  0  0
  -60.1370    2.1000   15.3710 C   0  0  0  0  0  0  0  0  0  0  0  0
  -61.6510    0.7940   16.5850 C   0  0  0  0  0  0  0  0  0  0  0  0
  -60.9350    2.0290   14.2820 C   0  0  0  0  0  0  0  0  0  0  0  0
  -62.4550    0.7260   15.4950 C   0  0  0  0  0  0  0  0  0  0  0  0
  -62.0840    1.3590   14.3580 C   0  0  0  0  0  0  0  0  0  0  0  0
  -62.8660    1.2880   13.2870 O   0  0  0  0  0  0  0  0  0  0  0  0
  -56.7270    1.6830   19.3290 N   0  0  0  0  0  0  0  0  0  0  0  0
  -56.2090    2.0490   20.6310 C   0  0  0  0  0  0  0  0  0  0  0  0
  -56.6450    3.4600   20.8710 C   0  0  0  0  0  0  0  0  0  0  0  0
  -55.8980    4.3410   20.5720 O   0  0  0  0  0  0  0  0  0  0  0  0
  -57.8090    3.6860   21.4500 N   0  0  0  0  0  0  0  0  0  0  0  0
  -58.2670    5.0520   21.6330 C   0  0  2  0  0  0  0  0  0  0  0  0
  -57.6630    5.6730   22.8870 C   0  0  0  0  0  0  0  0  0  0  0  0
  -57.8700    5.2250   23.9660 O   0  0  0  0  0  0  0  0  0  0  0  0
  -59.7930    5.1390   21.6850 C   0  0  0  0  0  0  0  0  0  0  0  0
  -60.4910    4.8470   20.3860 C   0  0  0  0  0  0  0  0  0  0  0  0
  -60.2010    5.5430   19.2440 C   0  0  0  0  0  0  0  0  0  0  0  0
  -61.4690    3.8920   20.3270 C   0  0  0  0  0  0  0  0  0  0  0  0
  -60.8580    5.2760   18.0750 C   0  0  0  0  0  0  0  0  0  0  0  0
  -62.1260    3.6250   19.1700 C   0  0  0  0  0  0  0  0  0  0  0  0
  -61.8270    4.3160   18.0410 C   0  0  0  0  0  0  0  0  0  0  0  0
  -56.9170    6.7330   22.6810 N   0  0  0  0  0  0  0  0  0  0  0  0
  -56.2500    7.5150   23.7000 C   0  0  2  0  0  0  0  0  0  0  0  0
  -56.7190    8.9450   23.5530 C   0  0  0  0  0  0  0  0  0  0  0  0
  -56.9300    9.3930   22.4640 O   0  0  0  0  0  0  0  0  0  0  0  0
  -54.7710    7.4920   23.4660 C   0  0  0  0  0  0  0  0  0  0  0  0
  -54.0630    6.3180   24.0360 C   0  0  0  0  0  0  0  0  0  0  0  0
  -52.5910    6.3470   23.7460 C   0  0  0  0  0  0  0  0  0  0  0  0
  -52.1630    6.8470   22.7350 O   0  0  0  0  0  0  0  0  0  0  0  0
  -51.8140    5.7890   24.6360 N   0  0  0  0  0  0  0  0  0  0  0  0
  -55.1820   11.6890   23.6390 N   0  0  0  0  0  0  0  0  0  0  0  0
  -54.2220   12.5150   22.9150 C   0  0  2  0  0  0  0  0  0  0  0  0
  -54.1240   12.1630   21.4350 C   0  0  0  0  0  0  0  0  0  0  0  0
  -53.2640   12.7120   20.7400 O   0  0  0  0  0  0  0  0  0  0  0  0
  -52.8260   12.4040   23.5430 C   0  0  2  0  0  0  0  0  0  0  0  0
  -52.4150   11.0250   23.5910 O   0  0  0  0  0  0  0  0  0  0  0  0
  -52.8140   13.0160   24.9470 C   0  0  0  0  0  0  0  0  0  0  0  0
  -54.9420   11.2340   20.9500 N   0  0  0  0  0  0  0  0  0  0  0  0
  -55.0510   11.0000   19.5160 C   0  0  2  0  0  0  0  0  0  0  0  0
  -55.5010   12.2710   18.7990 C   0  0  0  0  0  0  0  0  0  0  0  0
  -56.2930   13.0620   19.3270 O   0  0  0  0  0  0  0  0  0  0  0  0
  -56.0750    9.8980   19.2250 C   0  0  0  0  0  0  0  0  0  0  0  0
  -55.5610    8.5090   19.5270 C   0  0  0  0  0  0  0  0  0  0  0  0
  -54.3900    8.3160   19.8610 O   0  0  0  0  0  0  0  0  0  0  0  0
  -56.4460    7.5190   19.3870 N   0  0  0  0  0  0  0  0  0  0  0  0
  -55.0030   12.4600   17.5780 N   0  0  0  0  0  0  0  0  0  0  0  0
  -55.6430   13.3930   16.6770 C   0  0  0  0  0  0  0  0  0  0  0  0
  -57.0990   13.0290   16.4560 C   0  0  0  0  0  0  0  0  0  0  0  0
  -57.5090   11.8730   16.6200 O   0  0  0  0  0  0  0  0  0  0  0  0
  -57.9020   14.0320   16.0840 N   0  0  0  0  0  0  0  0  0  0  0  0
  -59.3410   13.8020   16.0190 C   0  0  2  0  0  0  0  0  0  0  0  0
  -59.6740   12.7500   14.9650 C   0  0  0  0  0  0  0  0  0  0  0  0
  -60.6310   11.9890   15.1340 O   0  0  0  0  0  0  0  0  0  0  0  0
  -60.1130   15.1250   15.7900 C   0  0  0  0  0  0  0  0  0  0  0  0
  -60.0570   15.9870   17.0480 C   0  0  0  0  0  0  0  0  0  0  0  0
  -59.5680   15.8870   14.6090 C   0  0  0  0  0  0  0  0  0  0  0  0
  -58.8910   12.6640   13.8850 N   0  0  0  0  0  0  0  0  0  0  0  0
  -59.0750   11.6010   12.9020 C   0  0  0  0  0  0  0  0  0  0  0  0
  -58.9130   10.1990   13.4700 C   0  0  0  0  0  0  0  0  0  0  0  0
  -59.4610    9.2420   12.9070 O   0  0  0  0  0  0  0  0  0  0  0  0
  -58.2020   10.0630   14.5940 N   0  0  0  0  0  0  0  0  0  0  0  0
  -57.9550    8.7930   15.2620 C   0  0  2  0  0  0  0  0  0  0  0  0
  -58.7070    8.6870   16.5820 C   0  0  0  0  0  0  0  0  0  0  0  0
  -58.4580    7.7610   17.3680 O   0  0  0  0  0  0  0  0  0  0  0  0
  -56.4470    8.6120   15.4920 C   0  0  0  0  0  0  0  0  0  0  0  0
  -55.6890    8.4810   14.1960 C   0  0  0  0  0  0  0  0  0  0  0  0
  -55.3710    9.6010   13.4490 C   0  0  0  0  0  0  0  0  0  0  0  0
  -55.3300    7.2340   13.6920 C   0  0  0  0  0  0  0  0  0  0  0  0
  -54.6940    9.4920   12.2390 C   0  0  0  0  0  0  0  0  0  0  0  0
  -54.6500    7.1190   12.4680 C   0  0  0  0  0  0  0  0  0  0  0  0
  -54.3440    8.2590   11.7570 C   0  0  0  0  0  0  0  0  0  0  0  0
  -53.6780    8.1900   10.5570 O   0  0  0  0  0  0  0  0  0  0  0  0
  2  1  1  6
  3  2  1  0
  4  3  2  0
  5  2  1  0
  6  5  1  0
  7  6  1  0
  8  7  1  0
  9  8  1  0
 10  9  1  0
 11  9  2  0
 13 12  1  1
 14 13  1  0
 15 14  2  0
 16 13  1  0
 17 16  1  0
 18 17  1  0
 19 18  2  0
 20 18  1  0
 22 21  1  6
 23 22  1  0
 24 23  2  0
 25 22  1  0
 26 25  1  0
 27 26  1  0
 28 27  1  0
 29 28  1  0
 31 30  1  1
 32 31  1  0
 33 32  2  0
 34 31  1  0
 35 34  1  0
 36 35  2  0
 37 35  1  0
 38 36  1  0
 39 37  2  0
 40 39  1  0
 40 38  2  0
 41 40  1  0
 43 42  1  1
 44 43  1  0
 45 44  2  0
 46 43  1  0
 47 46  1  0
 48 47  2  0
 49 47  1  0
 50 48  1  0
 51 49  2  0
 52 51  1  0
 52 50  2  0
 53 52  1  0
 55 54  1  6
 56 55  1  0
 57 56  2  0
 58 55  1  0
 59 58  1  0
 60 56  1  0
 61 60  1  0
 62 61  1  0
 63 62  2  0
 61 64  1  1
 65 64  1  0
 66 65  2  0
 67 65  1  0
 68 66  1  0
 69 67  2  0
 70 69  1  0
 70 68  2  0
 71 70  1  0
 72 62  1  0
 73 72  1  0
 74 73  1  0
 75 74  2  0
 76 74  1  0
 77 76  1  0
 78 77  1  0
 79 78  2  0
 77 80  1  1
 81 80  1  0
 82 81  2  0
 83 81  1  0
 84 82  1  0
 85 83  2  0
 86 85  1  0
 86 84  2  0
 87 78  1  0
 88 87  1  0
 89 88  1  0
 90 89  2  0
 88 91  1  6
 92 91  1  0
 93 92  1  0
 94 93  2  0
 95 93  1  0
 97 96  1  1
 98 97  1  0
 99 98  2  0
100 97  1  0
101100  1  0
100102  1  1
103 98  1  0
104103  1  0
105104  1  0
106105  2  0
104107  1  1
108107  1  0
109108  2  0
110108  1  0
111105  1  0
112111  1  0
113112  1  0
114113  2  0
115113  1  0
116115  1  6
117116  1  0
118117  2  0
119116  1  0
120119  1  0
121119  1  0
122117  1  0
123122  1  0
124123  1  0
125124  2  0
126124  1  0
127126  1  0
128127  1  0
129128  2  0
127130  1  1
131130  1  0
132131  2  0
133131  1  0
134132  1  0
135133  2  0
136135  1  0
136134  2  0
137136  1  0
M  END
$$$$
