
     RDKit          3D

120119  0  0  0  0  0  0  0  0999 V2000
    1.2830  -56.1820    3.6890 N   0  0  0  0  0  0  0  0  0  0  0  0
    2.4480  -55.6420    3.0030 C   0  0  2  0  0  0  0  0  0  0  0  0
    3.6250  -55.4930    3.9560 C   0  0  0  0  0  0  0  0  0  0  0  0
    3.4550  -55.3140    5.1680 O   0  0  0  0  0  0  0  0  0  0  0  0
    2.1430  -54.2820    2.3850 C   0  0  0  0  0  0  0  0  0  0  0  0
    1.5260  -54.3680    1.0170 C   0  0  0  0  0  0  0  0  0  0  0  0
    0.9120  -53.0580    0.6440 C   0  0  0  0  0  0  0  0  0  0  0  0
    1.8480  -51.9410    0.7440 N   0  0  0  0  0  0  0  0  0  0  0  0
    1.6260  -50.7590    0.1830 C   0  0  0  0  0  0  0  0  0  0  0  0
    0.5110  -50.5670   -0.5130 N   0  0  0  0  0  0  0  0  0  0  0  0
    2.5090  -49.7770    0.3040 N   0  0  0  0  0  0  0  0  0  0  0  0
   -0.0180  -60.4630  -10.9970 N   0  0  0  0  0  0  0  0  0  0  0  0
   -0.6100  -59.8690   -9.8240 C   0  0  0  0  0  0  0  0  0  0  0  0
   -1.5320  -60.8410   -9.1240 C   0  0  0  0  0  0  0  0  0  0  0  0
   -2.5190  -61.3080   -9.6990 O   0  0  0  0  0  0  0  0  0  0  0  0
   -4.3270  -61.2080   -6.4970 N   0  0  0  0  0  0  0  0  0  0  0  0
   -5.3540  -60.3420   -5.9380 C   0  0  2  0  0  0  0  0  0  0  0  0
   -6.2300  -61.0510   -4.9110 C   0  0  0  0  0  0  0  0  0  0  0  0
   -7.2150  -60.4690   -4.4540 O   0  0  0  0  0  0  0  0  0  0  0  0
   -6.2260  -59.7630   -7.0640 C   0  0  0  0  0  0  0  0  0  0  0  0
   -5.5280  -58.7010   -7.8970 C   0  0  0  0  0  0  0  0  0  0  0  0
   -5.5490  -57.3620   -7.5160 C   0  0  0  0  0  0  0  0  0  0  0  0
   -4.8470  -59.0410   -9.0680 C   0  0  0  0  0  0  0  0  0  0  0  0
   -4.9010  -56.3900   -8.2740 C   0  0  0  0  0  0  0  0  0  0  0  0
   -4.1990  -58.0780   -9.8360 C   0  0  0  0  0  0  0  0  0  0  0  0
   -4.2290  -56.7580   -9.4360 C   0  0  0  0  0  0  0  0  0  0  0  0
   -3.5900  -55.8040  -10.1890 O   0  0  0  0  0  0  0  0  0  0  0  0
  -10.5700  -54.4130    0.0310 N   0  0  0  0  0  0  0  0  0  0  0  0
   -9.7380  -54.0350   -1.1010 C   0  0  2  0  0  0  0  0  0  0  0  0
   -8.6690  -55.0990   -1.3390 C   0  0  0  0  0  0  0  0  0  0  0  0
   -8.0990  -55.6500   -0.3940 O   0  0  0  0  0  0  0  0  0  0  0  0
   -9.0770  -52.6700   -0.8640 C   0  0  0  0  0  0  0  0  0  0  0  0
   -7.9370  -52.3390   -1.8300 C   0  0  0  0  0  0  0  0  0  0  0  0
   -8.4370  -52.0220   -3.2270 C   0  0  0  0  0  0  0  0  0  0  0  0
   -9.5010  -51.4160   -3.3920 O   0  0  0  0  0  0  0  0  0  0  0  0
   -7.6640  -52.4170   -4.2450 N   0  0  0  0  0  0  0  0  0  0  0  0
   -8.3960  -55.3820   -2.6020 N   0  0  0  0  0  0  0  0  0  0  0  0
   -7.3960  -56.3750   -2.9580 C   0  0  2  0  0  0  0  0  0  0  0  0
   -5.9750  -55.7940   -2.8860 C   0  0  0  0  0  0  0  0  0  0  0  0
   -5.7260  -54.6480   -3.2750 O   0  0  0  0  0  0  0  0  0  0  0  0
   -7.6980  -56.9090   -4.3560 C   0  0  0  0  0  0  0  0  0  0  0  0
   -7.1390  -58.1920   -4.5210 O   0  0  0  0  0  0  0  0  0  0  0  0
   -5.0400  -56.5920   -2.3640 N   0  0  0  0  0  0  0  0  0  0  0  0
   -3.6520  -56.1390   -2.2710 C   0  0  2  0  0  0  0  0  0  0  0  0
   -2.9860  -56.0400   -3.6380 C   0  0  0  0  0  0  0  0  0  0  0  0
   -2.2710  -55.0690   -3.9160 O   0  0  0  0  0  0  0  0  0  0  0  0
   -2.8490  -57.0780   -1.3780 C   0  0  0  0  0  0  0  0  0  0  0  0
   -2.8320  -56.6870    0.0770 C   0  0  0  0  0  0  0  0  0  0  0  0
   -2.1270  -55.5680    0.5170 C   0  0  0  0  0  0  0  0  0  0  0  0
   -3.5310  -57.4400    1.0190 C   0  0  0  0  0  0  0  0  0  0  0  0
   -2.1230  -55.2120    1.8710 C   0  0  0  0  0  0  0  0  0  0  0  0
   -3.5350  -57.0940    2.3460 C   0  0  0  0  0  0  0  0  0  0  0  0
   -2.8320  -55.9860    2.7720 C   0  0  0  0  0  0  0  0  0  0  0  0
   -2.8530  -55.6740    4.1150 O   0  0  0  0  0  0  0  0  0  0  0  0
   -3.1650  -57.0370   -4.4910 N   0  0  0  0  0  0  0  0  0  0  0  0
   -2.4480  -57.0040   -5.7580 C   0  0  0  0  0  0  0  0  0  0  0  0
   -0.9450  -57.1450   -5.5990 C   0  0  0  0  0  0  0  0  0  0  0  0
   -0.2010  -56.1650   -5.7300 O   0  0  0  0  0  0  0  0  0  0  0  0
   -0.4860  -58.3590   -5.3010 N   0  0  0  0  0  0  0  0  0  0  0  0
    0.9360  -58.6290   -5.1140 C   0  0  2  0  0  0  0  0  0  0  0  0
    1.5350  -59.1020   -6.4320 C   0  0  0  0  0  0  0  0  0  0  0  0
    1.0270  -60.0470   -7.0440 O   0  0  0  0  0  0  0  0  0  0  0  0
    1.1690  -59.6910   -4.0310 C   0  0  0  0  0  0  0  0  0  0  0  0
    0.7810  -59.2540   -2.6360 C   0  0  0  0  0  0  0  0  0  0  0  0
    1.3810  -58.1430   -2.0380 C   0  0  0  0  0  0  0  0  0  0  0  0
   -0.1740  -59.9710   -1.9130 C   0  0  0  0  0  0  0  0  0  0  0  0
    1.0210  -57.7480   -0.7390 C   0  0  0  0  0  0  0  0  0  0  0  0
   -0.5370  -59.5840   -0.6240 C   0  0  0  0  0  0  0  0  0  0  0  0
    0.0600  -58.4710   -0.0350 C   0  0  0  0  0  0  0  0  0  0  0  0
    2.6150  -58.4470   -6.8620 N   0  0  0  0  0  0  0  0  0  0  0  0
    3.3700  -58.8380   -8.0410 C   0  0  2  0  0  0  0  0  0  0  0  0
    4.8350  -59.0230   -7.6710 C   0  0  0  0  0  0  0  0  0  0  0  0
    5.3900  -58.2230   -6.9070 O   0  0  0  0  0  0  0  0  0  0  0  0
    3.2460  -57.7830   -9.1500 C   0  0  0  0  0  0  0  0  0  0  0  0
    1.8080  -57.4680   -9.5220 C   0  0  0  0  0  0  0  0  0  0  0  0
    1.6860  -56.6810  -10.8090 C   0  0  0  0  0  0  0  0  0  0  0  0
    2.3370  -55.6460  -10.9830 O   0  0  0  0  0  0  0  0  0  0  0  0
    0.8480  -57.1660  -11.7220 N   0  0  0  0  0  0  0  0  0  0  0  0
    7.6010  -58.2410   -8.9690 N   0  0  0  0  0  0  0  0  0  0  0  0
    8.4820  -57.0970   -9.1910 C   0  0  2  0  0  0  0  0  0  0  0  0
    8.1340  -55.8990   -8.3170 C   0  0  0  0  0  0  0  0  0  0  0  0
    8.7410  -54.8320   -8.4810 O   0  0  0  0  0  0  0  0  0  0  0  0
    8.4540  -56.6610  -10.6620 C   0  0  2  0  0  0  0  0  0  0  0  0
    7.1680  -56.1040  -10.9670 O   0  0  0  0  0  0  0  0  0  0  0  0
    8.7320  -57.8440  -11.5690 C   0  0  0  0  0  0  0  0  0  0  0  0
    7.1590  -56.0390   -7.4210 N   0  0  0  0  0  0  0  0  0  0  0  0
    6.8860  -54.9880   -6.4550 C   0  0  2  0  0  0  0  0  0  0  0  0
    8.1590  -54.6050   -5.7110 C   0  0  0  0  0  0  0  0  0  0  0  0
    9.0330  -55.4390   -5.4640 O   0  0  0  0  0  0  0  0  0  0  0  0
    5.8270  -55.4510   -5.4590 C   0  0  0  0  0  0  0  0  0  0  0  0
    4.4230  -55.2340   -5.9650 C   0  0  0  0  0  0  0  0  0  0  0  0
    4.1910  -54.3950   -6.8430 O   0  0  0  0  0  0  0  0  0  0  0  0
    3.4710  -55.9820   -5.4110 N   0  0  0  0  0  0  0  0  0  0  0  0
    8.2700  -53.3230   -5.3750 N   0  0  0  0  0  0  0  0  0  0  0  0
    9.2340  -52.9010   -4.3800 C   0  0  0  0  0  0  0  0  0  0  0  0
    9.0130  -53.6590   -3.0830 C   0  0  0  0  0  0  0  0  0  0  0  0
    7.9480  -54.2490   -2.8820 O   0  0  0  0  0  0  0  0  0  0  0  0
   10.0000  -53.6520   -2.1860 N   0  0  0  0  0  0  0  0  0  0  0  0
    9.9430  -54.5820   -1.0620 C   0  0  2  0  0  0  0  0  0  0  0  0
    8.8550  -54.1910   -0.0690 C   0  0  0  0  0  0  0  0  0  0  0  0
    8.2970  -55.0490    0.6160 O   0  0  0  0  0  0  0  0  0  0  0  0
   11.3210  -54.6930   -0.3840 C   0  0  0  0  0  0  0  0  0  0  0  0
   11.7940  -53.3350    0.1100 C   0  0  0  0  0  0  0  0  0  0  0  0
   11.2510  -55.6830    0.7690 C   0  0  0  0  0  0  0  0  0  0  0  0
    8.5290  -52.9070    0.0250 N   0  0  0  0  0  0  0  0  0  0  0  0
    7.4230  -52.5070    0.8740 C   0  0  0  0  0  0  0  0  0  0  0  0
    6.0880  -53.0220    0.3760 C   0  0  0  0  0  0  0  0  0  0  0  0
    5.1990  -53.3320    1.1770 O   0  0  0  0  0  0  0  0  0  0  0  0
    5.9350  -53.1480   -0.9450 N   0  0  0  0  0  0  0  0  0  0  0  0
    4.6820  -53.6210   -1.5230 C   0  0  2  0  0  0  0  0  0  0  0  0
    4.5610  -55.1360   -1.5420 C   0  0  0  0  0  0  0  0  0  0  0  0
    3.4870  -55.6460   -1.8790 O   0  0  0  0  0  0  0  0  0  0  0  0
    4.5270  -53.1140   -2.9490 C   0  0  0  0  0  0  0  0  0  0  0  0
    4.1000  -51.6720   -3.1040 C   0  0  0  0  0  0  0  0  0  0  0  0
    4.8800  -50.6310   -2.6170 C   0  0  0  0  0  0  0  0  0  0  0  0
    2.9320  -51.3490   -3.7980 C   0  0  0  0  0  0  0  0  0  0  0  0
    4.4950  -49.3020   -2.8020 C   0  0  0  0  0  0  0  0  0  0  0  0
    2.5410  -50.0360   -3.9840 C   0  0  0  0  0  0  0  0  0  0  0  0
    3.3190  -49.0170   -3.4840 C   0  0  0  0  0  0  0  0  0  0  0  0
    2.9210  -47.7130   -3.6780 O   0  0  0  0  0  0  0  0  0  0  0  0
  2  1  1  1
  3  2  1  0
  4  3  2  0
  5  2  1  0
  6  5  1  0
  7  6  1  0
  8  7  1  0
  9  8  1  0
 10  9  1  0
 11  9  2  0
 13 12  1  0
 14 13  1  0
 15 14  2  0
 17 16  1  6
 18 17  1  0
 19 18  2  0
 20 17  1  0
 21 20  1  0
 22 21  2  0
 23 21  1  0
 24 22  1  0
 25 23  2  0
 26 25  1  0
 26 24  2  0
 27 26  1  0
 29 28  1  1
 30 29  1  0
 31 30  2  0
 32 29  1  0
 33 32  1  0
 34 33  1  0
 35 34  2  0
 36 34  1  0
 37 30  1  0
 38 37  1  0
 39 38  1  0
 40 39  2  0
 38 41  1  6
 42 41  1  0
 43 39  1  0
 44 43  1  0
 45 44  1  0
 46 45  2  0
 44 47  1  1
 48 47  1  0
 49 48  2  0
 50 48  1  0
 51 49  1  0
 52 50  2  0
 53 52  1  0
 53 51  2  0
 54 53  1  0
 55 45  1  0
 56 55  1  0
 57 56  1  0
 58 57  2  0
 59 57  1  0
 60 59  1  0
 61 60  1  0
 62 61  2  0
 60 63  1  1
 64 63  1  0
 65 64  2  0
 66 64  1  0
 67 65  1  0
 68 66  2  0
 69 68  1  0
 69 67  2  0
 70 61  1  0
 71 70  1  0
 72 71  1  0
 73 72  2  0
 71 74  1  6
 75 74  1  0
 76 75  1  0
 77 76  2  0
 78 76  1  0
 80 79  1  6
 81 80  1  0
 82 81  2  0
 83 80  1  0
 84 83  1  0
 83 85  1  6
 86 81  1  0
 87 86  1  0
 88 87  1  0
 89 88  2  0
 87 90  1  1
 91 90  1  0
 92 91  2  0
 93 91  1  0
 94 88  1  0
 95 94  1  0
 96 95  1  0
 97 96  2  0
 98 96  1  0
 99 98  1  6
100 99  1  0
101100  2  0
102 99  1  0
103102  1  0
104102  1  0
105100  1  0
106105  1  0
107106  1  0
108107  2  0
109107  1  0
110109  1  0
111110  1  0
112111  2  0
110113  1  6
114113  1  0
115114  2  0
116114  1  0
117115  1  0
118116  2  0
119118  1  0
119117  2  0
120119  1  0
M  END
$$$$
