
     RDKit          3D

157157  0  0  0  0  0  0  0  0999 V2000
   -4.1690  -48.1590    8.1730 N   0  0  0  0  0  0  0  0  0  0  0  0
   -5.2920  -48.9370    7.6590 C   0  0  2  0  0  0  0  0  0  0  0  0
   -5.2980  -50.3730    8.1870 C   0  0  0  0  0  0  0  0  0  0  0  0
   -6.3710  -50.9700    8.3410 O   0  0  0  0  0  0  0  0  0  0  0  0
   -5.2880  -48.9240    6.1330 C   0  0  0  0  0  0  0  0  0  0  0  0
   -5.8230  -47.6240    5.5720 C   0  0  0  0  0  0  0  0  0  0  0  0
   -6.0110  -47.6530    4.0580 C   0  0  0  0  0  0  0  0  0  0  0  0
   -4.7140  -47.8880    3.3230 C   0  0  0  0  0  0  0  0  0  0  0  0
   -4.8830  -47.6300    1.8540 N   0  0  0  0  0  0  0  0  0  0  0  0
   -8.4310  -50.8940   11.0390 N   0  0  0  0  0  0  0  0  0  0  0  0
   -9.5870  -51.5420   10.4220 C   0  0  2  0  0  0  0  0  0  0  0  0
   -9.4320  -53.0410   10.2210 C   0  0  0  0  0  0  0  0  0  0  0  0
  -10.4080  -53.6900    9.8390 O   0  0  0  0  0  0  0  0  0  0  0  0
   -9.9260  -50.8870    9.0630 C   0  0  0  0  0  0  0  0  0  0  0  0
  -10.0630  -49.3830    9.1550 C   0  0  0  0  0  0  0  0  0  0  0  0
  -10.6550  -48.7980   10.2670 C   0  0  0  0  0  0  0  0  0  0  0  0
   -9.5850  -48.5510    8.1560 C   0  0  0  0  0  0  0  0  0  0  0  0
  -10.7770  -47.4480   10.3730 C   0  0  0  0  0  0  0  0  0  0  0  0
   -9.6990  -47.1660    8.2570 C   0  0  0  0  0  0  0  0  0  0  0  0
  -10.2900  -46.6250    9.3770 C   0  0  0  0  0  0  0  0  0  0  0  0
  -10.4210  -45.2580    9.5130 O   0  0  0  0  0  0  0  0  0  0  0  0
   -7.7370  -56.6590    2.3750 N   0  0  0  0  0  0  0  0  0  0  0  0
   -7.8170  -55.9440    3.6440 C   0  0  2  0  0  0  0  0  0  0  0  0
   -9.0290  -55.0150    3.6220 C   0  0  0  0  0  0  0  0  0  0  0  0
   -9.5130  -54.6130    2.5570 O   0  0  0  0  0  0  0  0  0  0  0  0
   -6.5370  -55.1380    3.9300 C   0  0  0  0  0  0  0  0  0  0  0  0
   -6.4240  -53.8570    3.1360 C   0  0  0  0  0  0  0  0  0  0  0  0
   -5.9980  -53.8730    1.8180 C   0  0  0  0  0  0  0  0  0  0  0  0
   -6.7170  -52.6290    3.7110 C   0  0  0  0  0  0  0  0  0  0  0  0
   -5.8770  -52.7040    1.0710 C   0  0  0  0  0  0  0  0  0  0  0  0
   -6.6130  -51.4590    2.9830 C   0  0  0  0  0  0  0  0  0  0  0  0
   -6.1870  -51.5000    1.6590 C   0  0  0  0  0  0  0  0  0  0  0  0
   -6.0780  -50.3290    0.9390 O   0  0  0  0  0  0  0  0  0  0  0  0
   -9.4980  -54.6650    4.8170 N   0  0  0  0  0  0  0  0  0  0  0  0
  -10.6320  -53.7630    4.9870 C   0  0  2  0  0  0  0  0  0  0  0  0
  -10.1800  -52.3260    4.7750 C   0  0  0  0  0  0  0  0  0  0  0  0
   -9.4010  -51.7840    5.5680 O   0  0  0  0  0  0  0  0  0  0  0  0
  -11.2690  -53.9140    6.3680 C   0  0  0  0  0  0  0  0  0  0  0  0
  -12.5110  -53.0170    6.5160 C   0  0  0  0  0  0  0  0  0  0  0  0
  -13.4300  -53.4800    7.6460 C   0  0  0  0  0  0  0  0  0  0  0  0
  -13.6380  -54.9190    7.5690 N   0  0  0  0  0  0  0  0  0  0  0  0
  -14.6720  -55.4980    6.9630 C   0  0  0  0  0  0  0  0  0  0  0  0
  -15.6150  -54.7510    6.3910 N   0  0  0  0  0  0  0  0  0  0  0  0
  -14.7600  -56.8270    6.9340 N   0  0  0  0  0  0  0  0  0  0  0  0
  -10.6950  -51.7040    3.7170 N   0  0  0  0  0  0  0  0  0  0  0  0
  -10.3880  -50.3300    3.3530 C   0  0  2  0  0  0  0  0  0  0  0  0
  -11.3300  -49.3480    4.0330 C   0  0  0  0  0  0  0  0  0  0  0  0
  -10.8900  -48.2830    4.4770 O   0  0  0  0  0  0  0  0  0  0  0  0
  -10.4580  -50.1750    1.8230 C   0  0  0  0  0  0  0  0  0  0  0  0
  -10.1450  -48.8170    1.1730 C   0  0  0  0  0  0  0  0  0  0  0  0
   -8.7960  -48.2240    1.6360 C   0  0  0  0  0  0  0  0  0  0  0  0
  -10.2420  -48.8460   -0.3710 C   0  0  0  0  0  0  0  0  0  0  0  0
  -12.6200  -49.6850    4.1300 N   0  0  0  0  0  0  0  0  0  0  0  0
  -13.6330  -48.7890    4.6740 C   0  0  2  0  0  0  0  0  0  0  0  0
  -14.2120  -49.3580    5.9600 C   0  0  0  0  0  0  0  0  0  0  0  0
  -14.5800  -50.5340    6.0100 O   0  0  0  0  0  0  0  0  0  0  0  0
  -14.7640  -48.5530    3.6620 C   0  0  0  0  0  0  0  0  0  0  0  0
  -14.3430  -47.7650    2.4680 C   0  0  0  0  0  0  0  0  0  0  0  0
  -14.1410  -46.3960    2.5700 C   0  0  0  0  0  0  0  0  0  0  0  0
  -14.1690  -48.3830    1.2360 C   0  0  0  0  0  0  0  0  0  0  0  0
  -13.7360  -45.6630    1.4660 C   0  0  0  0  0  0  0  0  0  0  0  0
  -13.7830  -47.6560    0.1350 C   0  0  0  0  0  0  0  0  0  0  0  0
  -13.5700  -46.2960    0.2460 C   0  0  0  0  0  0  0  0  0  0  0  0
  -14.3120  -48.5110    6.9810 N   0  0  0  0  0  0  0  0  0  0  0  0
  -14.9200  -48.8330    8.2660 C   0  0  2  0  0  0  0  0  0  0  0  0
  -15.1690  -47.5180    8.9910 C   0  0  0  0  0  0  0  0  0  0  0  0
  -14.3600  -46.5930    8.8930 O   0  0  0  0  0  0  0  0  0  0  0  0
  -14.0210  -49.7640    9.1060 C   0  0  0  0  0  0  0  0  0  0  0  0
  -14.7900  -50.5530   10.1650 C   0  0  0  0  0  0  0  0  0  0  0  0
  -13.9190  -51.4830   10.9920 C   0  0  0  0  0  0  0  0  0  0  0  0
  -14.7420  -52.4820   11.6710 N   0  0  0  0  0  0  0  0  0  0  0  0
  -15.2260  -52.3670   12.9070 C   0  0  0  0  0  0  0  0  0  0  0  0
  -14.9620  -51.2920   13.6420 N   0  0  0  0  0  0  0  0  0  0  0  0
  -15.9780  -53.3390   13.4160 N   0  0  0  0  0  0  0  0  0  0  0  0
  -16.2840  -47.4280    9.7060 N   0  0  0  0  0  0  0  0  0  0  0  0
  -16.6030  -46.1440   10.3130 C   0  0  2  0  0  0  0  0  0  0  0  0
  -15.7440  -45.8570   11.5440 C   0  0  0  0  0  0  0  0  0  0  0  0
  -15.4000  -44.6970   11.8050 O   0  0  0  0  0  0  0  0  0  0  0  0
  -18.0960  -46.0720   10.6530 C   0  0  0  0  0  0  0  0  0  0  0  0
  -18.5360  -44.6930   11.1660 C   0  0  0  0  0  0  0  0  0  0  0  0
  -18.3820  -43.5990   10.0860 C   0  0  0  0  0  0  0  0  0  0  0  0
  -18.0400  -42.2090   10.6600 C   0  0  0  0  0  0  0  0  0  0  0  0
  -16.6050  -42.0380   11.1610 N   0  0  0  0  0  0  0  0  0  0  0  0
  -20.4510  -49.9780    2.0290 N   0  0  0  0  0  0  0  0  0  0  0  0
  -20.0840  -48.8510    2.8780 C   0  0  2  0  0  0  0  0  0  0  0  0
  -20.6780  -47.5600    2.3400 C   0  0  0  0  0  0  0  0  0  0  0  0
  -20.4820  -47.2180    1.1690 O   0  0  0  0  0  0  0  0  0  0  0  0
  -18.5550  -48.7310    2.9430 C   0  0  0  0  0  0  0  0  0  0  0  0
  -18.0660  -47.6810    3.8810 C   0  0  0  0  0  0  0  0  0  0  0  0
  -17.8960  -47.9630    5.2320 C   0  0  0  0  0  0  0  0  0  0  0  0
  -17.7830  -46.3990    3.4300 C   0  0  0  0  0  0  0  0  0  0  0  0
  -17.4530  -47.0100    6.1010 C   0  0  0  0  0  0  0  0  0  0  0  0
  -17.3390  -45.4360    4.2910 C   0  0  0  0  0  0  0  0  0  0  0  0
  -17.1680  -45.7510    5.6360 C   0  0  0  0  0  0  0  0  0  0  0  0
  -16.7240  -44.7980    6.5220 O   0  0  0  0  0  0  0  0  0  0  0  0
  -21.3680  -46.8280    3.2030 N   0  0  0  0  0  0  0  0  0  0  0  0
  -22.0140  -45.5820    2.8100 C   0  0  2  0  0  0  0  0  0  0  0  0
  -21.0720  -44.4040    3.0510 C   0  0  0  0  0  0  0  0  0  0  0  0
  -20.8540  -43.9920    4.1970 O   0  0  0  0  0  0  0  0  0  0  0  0
  -23.3110  -45.3970    3.5800 C   0  0  0  0  0  0  0  0  0  0  0  0
  -24.0740  -44.1540    3.1940 C   0  0  0  0  0  0  0  0  0  0  0  0
  -25.3120  -43.9790    4.0600 C   0  0  0  0  0  0  0  0  0  0  0  0
  -25.8820  -44.9590    4.5510 O   0  0  0  0  0  0  0  0  0  0  0  0
  -25.6960  -42.7280    4.3030 N   0  0  0  0  0  0  0  0  0  0  0  0
  -20.5560  -43.8310    1.9670 N   0  0  0  0  0  0  0  0  0  0  0  0
  -19.6530  -42.6950    2.0540 C   0  0  2  0  0  0  0  0  0  0  0  0
  -20.3430  -41.3620    1.7850 C   0  0  0  0  0  0  0  0  0  0  0  0
  -19.7430  -40.3040    2.0190 O   0  0  0  0  0  0  0  0  0  0  0  0
  -18.4750  -42.8870    1.0880 C   0  0  0  0  0  0  0  0  0  0  0  0
  -21.5980  -41.3810    1.3300 N   0  0  0  0  0  0  0  0  0  0  0  0
  -22.3310  -40.1830    1.0470 C   0  0  0  0  0  0  0  0  0  0  0  0
  -23.5090  -39.9840    1.9720 C   0  0  0  0  0  0  0  0  0  0  0  0
  -23.6180  -40.6070    3.0360 O   0  0  0  0  0  0  0  0  0  0  0  0
  -24.4210  -39.1120    1.5430 N   0  0  0  0  0  0  0  0  0  0  0  0
  -25.5950  -38.7530    2.3240 C   0  0  2  0  0  0  0  0  0  0  0  0
  -26.7070  -39.7930    2.2370 C   0  0  0  0  0  0  0  0  0  0  0  0
  -27.5580  -39.8450    3.1260 O   0  0  0  0  0  0  0  0  0  0  0  0
  -26.1150  -37.3920    1.8480 C   0  0  0  0  0  0  0  0  0  0  0  0
  -26.7440  -36.6830    2.8980 O   0  0  0  0  0  0  0  0  0  0  0  0
  -26.7070  -40.6280    1.2180 N   0  0  0  0  0  0  0  0  0  0  0  0
  -27.8480  -41.4850    0.9590 C   0  0  2  0  0  0  0  0  0  0  0  0
  -27.5070  -42.9510    1.2150 C   0  0  0  0  0  0  0  0  0  0  0  0
  -26.4320  -43.4180    0.8190 O   0  0  0  0  0  0  0  0  0  0  0  0
  -28.3380  -41.3260   -0.4880 C   0  0  2  0  0  0  0  0  0  0  0  0
  -27.4700  -42.0430   -1.3760 O   0  0  0  0  0  0  0  0  0  0  0  0
  -28.3430  -39.8710   -0.8930 C   0  0  0  0  0  0  0  0  0  0  0  0
  -21.5980  -45.1260   -6.7770 N   0  0  0  0  0  0  0  0  0  0  0  0
  -20.9530  -43.9150   -6.2920 C   0  0  2  0  0  0  0  0  0  0  0  0
  -21.3070  -43.6850   -4.8250 C   0  0  0  0  0  0  0  0  0  0  0  0
  -22.4730  -43.7810   -4.4300 O   0  0  0  0  0  0  0  0  0  0  0  0
  -21.3540  -42.7110   -7.1450 C   0  0  0  0  0  0  0  0  0  0  0  0
  -20.6850  -41.4340   -6.7210 C   0  0  0  0  0  0  0  0  0  0  0  0
  -19.3140  -41.2570   -6.9080 C   0  0  0  0  0  0  0  0  0  0  0  0
  -21.4160  -40.4220   -6.1080 C   0  0  0  0  0  0  0  0  0  0  0  0
  -18.6870  -40.0860   -6.4890 C   0  0  0  0  0  0  0  0  0  0  0  0
  -20.8050  -39.2490   -5.6860 C   0  0  0  0  0  0  0  0  0  0  0  0
  -19.4360  -39.0730   -5.8790 C   0  0  0  0  0  0  0  0  0  0  0  0
  -20.2860  -43.4180   -4.0120 N   0  0  0  0  0  0  0  0  0  0  0  0
  -20.3860  -43.2700   -2.5550 C   0  0  2  0  0  0  0  0  0  0  0  0
  -20.9230  -44.5200   -1.8610 C   0  0  0  0  0  0  0  0  0  0  0  0
  -21.3610  -44.4540   -0.7130 O   0  0  0  0  0  0  0  0  0  0  0  0
  -21.2210  -42.0410   -2.1700 C   0  0  0  0  0  0  0  0  0  0  0  0
  -20.4090  -40.7770   -2.2160 C   0  0  0  0  0  0  0  0  0  0  0  0
  -19.1840  -40.8350   -2.3110 O   0  0  0  0  0  0  0  0  0  0  0  0
  -21.0700  -39.6300   -2.1480 N   0  0  0  0  0  0  0  0  0  0  0  0
  -19.5980  -48.3960   -1.4280 N   0  0  0  0  0  0  0  0  0  0  0  0
  -18.3890  -49.1440   -1.7520 C   0  0  2  0  0  0  0  0  0  0  0  0
  -18.3220  -50.4600   -0.9940 C   0  0  0  0  0  0  0  0  0  0  0  0
  -18.5850  -50.5020    0.2110 O   0  0  0  0  0  0  0  0  0  0  0  0
  -17.1590  -48.2970   -1.4380 C   0  0  0  0  0  0  0  0  0  0  0  0
  -17.1770  -47.0120   -2.2050 C   0  0  0  0  0  0  0  0  0  0  0  0
  -17.2160  -47.0220   -3.5990 C   0  0  0  0  0  0  0  0  0  0  0  0
  -17.1780  -45.7890   -1.5480 C   0  0  0  0  0  0  0  0  0  0  0  0
  -17.2510  -45.8400   -4.3220 C   0  0  0  0  0  0  0  0  0  0  0  0
  -17.2060  -44.6010   -2.2580 C   0  0  0  0  0  0  0  0  0  0  0  0
  -17.2450  -44.6330   -3.6440 C   0  0  0  0  0  0  0  0  0  0  0  0
  -17.2810  -43.4540   -4.3450 O   0  0  0  0  0  0  0  0  0  0  0  0
  2  1  1  1
  3  2  1  0
  4  3  2  0
  5  2  1  0
  6  5  1  0
  7  6  1  0
  8  7  1  0
  9  8  1  0
 11 10  1  6
 12 11  1  0
 13 12  2  0
 14 11  1  0
 15 14  1  0
 16 15  2  0
 17 15  1  0
 18 16  1  0
 19 17  2  0
 20 19  1  0
 20 18  2  0
 21 20  1  0
 23 22  1  6
 24 23  1  0
 25 24  2  0
 26 23  1  0
 27 26  1  0
 28 27  2  0
 29 27  1  0
 30 28  1  0
 31 29  2  0
 32 31  1  0
 32 30  2  0
 33 32  1  0
 34 24  1  0
 35 34  1  0
 36 35  1  0
 37 36  2  0
 35 38  1  1
 39 38  1  0
 40 39  1  0
 41 40  1  0
 42 41  1  0
 43 42  1  0
 44 42  2  0
 45 36  1  0
 46 45  1  0
 47 46  1  0
 48 47  2  0
 46 49  1  6
 50 49  1  0
 51 50  1  0
 52 50  1  0
 53 47  1  0
 54 53  1  0
 55 54  1  0
 56 55  2  0
 54 57  1  6
 58 57  1  0
 59 58  2  0
 60 58  1  0
 61 59  1  0
 62 60  2  0
 63 62  1  0
 63 61  2  0
 64 55  1  0
 65 64  1  0
 66 65  1  0
 67 66  2  0
 65 68  1  1
 69 68  1  0
 70 69  1  0
 71 70  1  0
 72 71  1  0
 73 72  1  0
 74 72  2  0
 75 66  1  0
 76 75  1  0
 77 76  1  0
 78 77  2  0
 76 79  1  1
 80 79  1  0
 81 80  1  0
 82 81  1  0
 83 82  1  0
 85 84  1  6
 86 85  1  0
 87 86  2  0
 88 85  1  0
 89 88  1  0
 90 89  2  0
 91 89  1  0
 92 90  1  0
 93 91  2  0
 94 93  1  0
 94 92  2  0
 95 94  1  0
 96 86  1  0
 97 96  1  0
 98 97  1  0
 99 98  2  0
 97100  1  1
101100  1  0
102101  1  0
103102  2  0
104102  1  0
105 98  1  0
106105  1  0
107106  1  0
108107  2  0
106109  1  6
110107  1  0
111110  1  0
112111  1  0
113112  2  0
114112  1  0
115114  1  0
116115  1  0
117116  2  0
115118  1  6
119118  1  0
120116  1  0
121120  1  6
122121  1  0
123122  2  0
124121  1  0
125124  1  0
124126  1  6
128127  1  6
129128  1  0
130129  2  0
131128  1  0
132131  1  0
133132  2  0
134132  1  0
135133  1  0
136134  2  0
137136  1  0
137135  2  0
138129  1  0
139138  1  0
140139  1  0
141140  2  0
139142  1  6
143142  1  0
144143  2  0
145143  1  0
147146  1  1
148147  1  0
149148  2  0
150147  1  0
151150  1  0
152151  2  0
153151  1  0
154152  1  0
155153  2  0
156155  1  0
156154  2  0
157156  1  0
M  END
$$$$
