
     RDKit          3D

153151  0  0  0  0  0  0  0  0999 V2000
   10.7820   -0.9200  -26.8290 N   0  0  0  0  0  0  0  0  0  0  0  0
    9.4570   -1.4890  -27.0410 C   0  0  2  0  0  0  0  0  0  0  0  0
    8.8020   -1.8770  -25.7300 C   0  0  0  0  0  0  0  0  0  0  0  0
    7.5840   -2.0420  -25.6870 O   0  0  0  0  0  0  0  0  0  0  0  0
    9.4920   -2.6920  -27.9970 C   0  0  0  0  0  0  0  0  0  0  0  0
   10.3240   -3.8280  -27.4740 C   0  0  0  0  0  0  0  0  0  0  0  0
   10.0430   -4.3880  -26.4130 O   0  0  0  0  0  0  0  0  0  0  0  0
   11.3740   -4.1760  -28.2120 N   0  0  0  0  0  0  0  0  0  0  0  0
    9.5790   -1.9920  -24.6590 N   0  0  0  0  0  0  0  0  0  0  0  0
    9.0090   -2.2230  -23.3460 C   0  0  2  0  0  0  0  0  0  0  0  0
   10.0950   -1.9910  -22.3110 C   0  0  0  0  0  0  0  0  0  0  0  0
   11.2310   -2.4250  -22.5000 O   0  0  0  0  0  0  0  0  0  0  0  0
    8.4580   -3.6460  -23.2140 C   0  0  0  0  0  0  0  0  0  0  0  0
    7.9720   -3.9620  -21.8080 C   0  0  0  0  0  0  0  0  0  0  0  0
    7.1680   -5.2730  -21.7730 C   0  0  0  0  0  0  0  0  0  0  0  0
    7.1090   -5.8150  -20.3630 C   0  0  0  0  0  0  0  0  0  0  0  0
    6.0310   -6.8320  -20.1300 N   0  0  0  0  0  0  0  0  0  0  0  0
    9.7300   -1.2930  -21.2340 N   0  0  0  0  0  0  0  0  0  0  0  0
   10.5520   -1.0910  -20.0470 C   0  0  2  0  0  0  0  0  0  0  0  0
    9.6970   -1.5110  -18.8620 C   0  0  0  0  0  0  0  0  0  0  0  0
    8.5820   -1.0030  -18.6990 O   0  0  0  0  0  0  0  0  0  0  0  0
   10.9790    0.3940  -19.9320 C   0  0  0  0  0  0  0  0  0  0  0  0
   11.8410    0.9020  -18.3970 S   0  0  0  0  0  0  0  0  0  0  0  0
   10.2160   -2.4030  -18.0160 N   0  0  0  0  0  0  0  0  0  0  0  0
    9.3950   -2.9260  -16.9440 C   0  0  2  0  0  0  0  0  0  0  0  0
   10.2590   -3.3030  -15.7450 C   0  0  0  0  0  0  0  0  0  0  0  0
   11.4360   -3.6340  -15.8750 O   0  0  0  0  0  0  0  0  0  0  0  0
    8.5920   -4.1400  -17.4450 C   0  0  0  0  0  0  0  0  0  0  0  0
    7.5450   -4.4830  -16.5500 O   0  0  0  0  0  0  0  0  0  0  0  0
    9.6340   -3.2870  -14.5760 N   0  0  0  0  0  0  0  0  0  0  0  0
   10.2780   -3.5930  -13.3070 C   0  0  2  0  0  0  0  0  0  0  0  0
    9.6970   -4.8850  -12.7720 C   0  0  0  0  0  0  0  0  0  0  0  0
    8.4730   -5.0750  -12.7770 O   0  0  0  0  0  0  0  0  0  0  0  0
   10.0460   -2.5170  -12.2390 C   0  0  0  0  0  0  0  0  0  0  0  0
   10.9560   -1.3050  -12.3550 C   0  0  0  0  0  0  0  0  0  0  0  0
   12.1920   -1.4540  -11.4570 C   0  0  0  0  0  0  0  0  0  0  0  0
   11.9220   -1.2170  -10.0340 N   0  0  0  0  0  0  0  0  0  0  0  0
   12.1580   -2.1060   -9.0700 C   0  0  0  0  0  0  0  0  0  0  0  0
   12.6690   -3.2970   -9.3740 N   0  0  0  0  0  0  0  0  0  0  0  0
   11.9010   -1.8070   -7.8030 N   0  0  0  0  0  0  0  0  0  0  0  0
   10.5630   -5.7440  -12.2600 N   0  0  0  0  0  0  0  0  0  0  0  0
   10.1420   -6.9000  -11.4780 C   0  0  2  0  0  0  0  0  0  0  0  0
   10.5230   -6.5890  -10.0370 C   0  0  0  0  0  0  0  0  0  0  0  0
   11.6960   -6.3350   -9.7520 O   0  0  0  0  0  0  0  0  0  0  0  0
   10.8250   -8.1800  -11.9850 C   0  0  0  0  0  0  0  0  0  0  0  0
   10.4780   -9.4610  -11.2250 C   0  0  0  0  0  0  0  0  0  0  0  0
    8.9890   -9.7760  -11.4010 C   0  0  0  0  0  0  0  0  0  0  0  0
   11.3510  -10.6430  -11.6830 C   0  0  0  0  0  0  0  0  0  0  0  0
   10.0120  -11.0140   -6.7800 N   0  0  0  0  0  0  0  0  0  0  0  0
   10.2670  -11.7590   -8.0190 C   0  0  2  0  0  0  0  0  0  0  0  0
    8.9930  -12.2570   -8.6920 C   0  0  0  0  0  0  0  0  0  0  0  0
    9.0480  -13.2210   -9.4510 O   0  0  0  0  0  0  0  0  0  0  0  0
   11.2270  -12.9370   -7.8050 C   0  0  0  0  0  0  0  0  0  0  0  0
   12.6460  -12.4790   -7.5130 C   0  0  0  0  0  0  0  0  0  0  0  0
   13.0420  -11.4170   -8.0260 O   0  0  0  0  0  0  0  0  0  0  0  0
   13.3470  -13.1580   -6.7360 O   0  0  0  0  0  0  0  0  0  0  0  0
    7.8360  -11.6370   -8.4360 N   0  0  0  0  0  0  0  0  0  0  0  0
    6.6090  -12.0760   -9.0970 C   0  0  2  0  0  0  0  0  0  0  0  0
    5.6780  -10.9440   -9.5100 C   0  0  0  0  0  0  0  0  0  0  0  0
    4.7870  -11.1900  -10.3270 O   0  0  0  0  0  0  0  0  0  0  0  0
    5.8300  -13.0650   -8.2080 C   0  0  0  0  0  0  0  0  0  0  0  0
    5.0150  -12.4200   -7.0540 C   0  0  0  0  0  0  0  0  0  0  0  0
    4.2840  -13.4680   -6.2750 C   0  0  0  0  0  0  0  0  0  0  0  0
    3.1820  -14.0510   -7.0410 N   0  0  0  0  0  0  0  0  0  0  0  0
    2.0150  -14.4110   -6.5150 C   0  0  0  0  0  0  0  0  0  0  0  0
    1.7770  -14.2390   -5.2240 N   0  0  0  0  0  0  0  0  0  0  0  0
    1.0800  -14.9420   -7.2870 N   0  0  0  0  0  0  0  0  0  0  0  0
    5.8660   -9.7170   -9.0250 N   0  0  0  0  0  0  0  0  0  0  0  0
    5.0390   -8.5800   -9.4190 C   0  0  2  0  0  0  0  0  0  0  0  0
    5.7580   -7.7410  -10.4690 C   0  0  0  0  0  0  0  0  0  0  0  0
    6.8580   -7.2320  -10.2220 O   0  0  0  0  0  0  0  0  0  0  0  0
    4.6970   -7.7310   -8.1950 C   0  0  2  0  0  0  0  0  0  0  0  0
    4.0520   -8.5710   -7.2340 O   0  0  0  0  0  0  0  0  0  0  0  0
    3.7780   -6.5640   -8.5730 C   0  0  0  0  0  0  0  0  0  0  0  0
    5.1360   -7.5840  -11.6320 N   0  0  0  0  0  0  0  0  0  0  0  0
    5.6910   -6.7670  -12.6930 C   0  0  2  0  0  0  0  0  0  0  0  0
    4.9870   -5.4100  -12.7250 C   0  0  0  0  0  0  0  0  0  0  0  0
    3.7590   -5.3220  -12.5850 O   0  0  0  0  0  0  0  0  0  0  0  0
    5.5670   -7.4620  -14.0470 C   0  0  0  0  0  0  0  0  0  0  0  0
    5.8250   -6.5480  -15.2150 C   0  0  0  0  0  0  0  0  0  0  0  0
    5.9280   -7.2820  -16.5300 C   0  0  0  0  0  0  0  0  0  0  0  0
    5.6410   -8.4950  -16.5560 O   0  0  0  0  0  0  0  0  0  0  0  0
    6.2920   -6.6400  -17.5370 O   0  0  0  0  0  0  0  0  0  0  0  0
    5.7770   -4.3560  -12.8820 N   0  0  0  0  0  0  0  0  0  0  0  0
    5.2580   -2.9970  -13.0010 C   0  0  2  0  0  0  0  0  0  0  0  0
    5.8100   -2.3900  -14.2820 C   0  0  0  0  0  0  0  0  0  0  0  0
    6.9500   -1.9120  -14.2940 O   0  0  0  0  0  0  0  0  0  0  0  0
    5.6220   -2.1420  -11.7780 C   0  0  0  0  0  0  0  0  0  0  0  0
    4.9440   -0.7920  -11.8660 C   0  0  0  0  0  0  0  0  0  0  0  0
    5.2230   -2.8450  -10.5000 C   0  0  0  0  0  0  0  0  0  0  0  0
   17.8910   -7.3320  -25.4960 N   0  0  0  0  0  0  0  0  0  0  0  0
   17.4350   -7.1670  -24.1210 C   0  0  2  0  0  0  0  0  0  0  0  0
   18.4980   -6.4930  -23.2750 C   0  0  0  0  0  0  0  0  0  0  0  0
   19.6990   -6.6720  -23.4980 O   0  0  0  0  0  0  0  0  0  0  0  0
   17.0880   -8.5130  -23.4740 C   0  0  0  0  0  0  0  0  0  0  0  0
   15.6940   -8.9650  -23.7700 C   0  0  0  0  0  0  0  0  0  0  0  0
   15.3690   -9.4930  -25.0140 C   0  0  0  0  0  0  0  0  0  0  0  0
   14.6940   -8.8680  -22.8160 C   0  0  0  0  0  0  0  0  0  0  0  0
   14.0810   -9.9130  -25.3060 C   0  0  0  0  0  0  0  0  0  0  0  0
   13.3930   -9.2770  -23.1000 C   0  0  0  0  0  0  0  0  0  0  0  0
   13.0980   -9.8040  -24.3440 C   0  0  0  0  0  0  0  0  0  0  0  0
   11.8220  -10.2190  -24.6340 O   0  0  0  0  0  0  0  0  0  0  0  0
   19.1980   -5.6960  -19.0370 N   0  0  0  0  0  0  0  0  0  0  0  0
   18.7550   -6.1710  -17.7450 C   0  0  2  0  0  0  0  0  0  0  0  0
   19.6850   -5.6240  -16.6890 C   0  0  0  0  0  0  0  0  0  0  0  0
   20.9050   -5.6320  -16.8640 O   0  0  0  0  0  0  0  0  0  0  0  0
   18.7280   -7.7040  -17.6900 C   0  0  0  0  0  0  0  0  0  0  0  0
   18.2130   -8.2220  -16.3530 C   0  0  0  0  0  0  0  0  0  0  0  0
   17.8240   -9.7000  -16.4230 C   0  0  0  0  0  0  0  0  0  0  0  0
   18.8750  -10.4990  -17.0430 N   0  0  0  0  0  0  0  0  0  0  0  0
   18.8510  -11.8220  -17.1510 C   0  0  0  0  0  0  0  0  0  0  0  0
   17.8210  -12.5100  -16.6860 N   0  0  0  0  0  0  0  0  0  0  0  0
   19.8570  -12.4560  -17.7400 N   0  0  0  0  0  0  0  0  0  0  0  0
   14.4040   -6.1740  -10.3480 N   0  0  0  0  0  0  0  0  0  0  0  0
   15.0760   -6.0970  -11.6380 C   0  0  2  0  0  0  0  0  0  0  0  0
   14.4300   -5.0340  -12.5060 C   0  0  0  0  0  0  0  0  0  0  0  0
   13.2250   -4.7960  -12.4270 O   0  0  0  0  0  0  0  0  0  0  0  0
   15.0150   -7.4270  -12.3890 C   0  0  0  0  0  0  0  0  0  0  0  0
   15.7360   -8.5120  -11.7010 C   0  0  0  0  0  0  0  0  0  0  0  0
   15.2970   -9.2570  -10.6550 C   0  0  0  0  0  0  0  0  0  0  0  0
   17.0520   -8.9670  -12.0030 C   0  0  0  0  0  0  0  0  0  0  0  0
   16.2610  -10.1710  -10.2870 N   0  0  0  0  0  0  0  0  0  0  0  0
   17.3540  -10.0040  -11.0980 C   0  0  0  0  0  0  0  0  0  0  0  0
   18.0090   -8.5940  -12.9500 C   0  0  0  0  0  0  0  0  0  0  0  0
   18.5710  -10.6750  -11.1170 C   0  0  0  0  0  0  0  0  0  0  0  0
   19.2170   -9.2710  -12.9740 C   0  0  0  0  0  0  0  0  0  0  0  0
   19.4840  -10.3000  -12.0590 C   0  0  0  0  0  0  0  0  0  0  0  0
   15.2420   -4.4170  -13.3570 N   0  0  0  0  0  0  0  0  0  0  0  0
   14.7670   -3.5080  -14.3900 C   0  0  2  0  0  0  0  0  0  0  0  0
   15.1880   -4.0630  -15.7380 C   0  0  0  0  0  0  0  0  0  0  0  0
   16.3790   -4.2890  -15.9680 O   0  0  0  0  0  0  0  0  0  0  0  0
   15.3210   -2.1000  -14.1640 C   0  0  0  0  0  0  0  0  0  0  0  0
   14.9170   -1.0410  -15.1940 C   0  0  0  0  0  0  0  0  0  0  0  0
   13.4540   -0.6550  -15.0010 C   0  0  0  0  0  0  0  0  0  0  0  0
   15.8450    0.1880  -15.1150 C   0  0  0  0  0  0  0  0  0  0  0  0
   14.2230   -4.2920  -16.6290 N   0  0  0  0  0  0  0  0  0  0  0  0
   14.5060   -4.8930  -17.9280 C   0  0  2  0  0  0  0  0  0  0  0  0
   13.8390   -4.0750  -19.0270 C   0  0  0  0  0  0  0  0  0  0  0  0
   12.6920   -3.6260  -18.8870 O   0  0  0  0  0  0  0  0  0  0  0  0
   14.0500   -6.3730  -17.9810 C   0  0  0  0  0  0  0  0  0  0  0  0
   14.1660   -6.9380  -19.3970 C   0  0  0  0  0  0  0  0  0  0  0  0
   14.8850   -7.2290  -17.0350 C   0  0  0  0  0  0  0  0  0  0  0  0
   14.5610   -3.8920  -20.1250 N   0  0  0  0  0  0  0  0  0  0  0  0
   14.0590   -3.2340  -21.3230 C   0  0  2  0  0  0  0  0  0  0  0  0
   14.3460   -4.1120  -22.5250 C   0  0  0  0  0  0  0  0  0  0  0  0
   15.3130   -4.8810  -22.5320 O   0  0  0  0  0  0  0  0  0  0  0  0
   14.7170   -1.8440  -21.5550 C   0  0  0  0  0  0  0  0  0  0  0  0
   13.5410   -3.9350  -23.5660 N   0  0  0  0  0  0  0  0  0  0  0  0
   13.7930   -4.5410  -24.8550 C   0  0  2  0  0  0  0  0  0  0  0  0
   13.7500   -3.4590  -25.9190 C   0  0  0  0  0  0  0  0  0  0  0  0
   12.9390   -2.5330  -25.8400 O   0  0  0  0  0  0  0  0  0  0  0  0
   12.7500   -5.6540  -25.1620 C   0  0  0  0  0  0  0  0  0  0  0  0
   12.9330   -6.1520  -26.4840 O   0  0  0  0  0  0  0  0  0  0  0  0
  2  1  1  1
  3  2  1  0
  4  3  2  0
  5  2  1  0
  6  5  1  0
  7  6  2  0
  8  6  1  0
  9  3  1  0
 10  9  1  0
 11 10  1  0
 12 11  2  0
 10 13  1  6
 14 13  1  0
 15 14  1  0
 16 15  1  0
 17 16  1  0
 18 11  1  0
 19 18  1  0
 20 19  1  0
 21 20  2  0
 19 22  1  1
 23 22  1  0
 24 20  1  0
 25 24  1  0
 26 25  1  0
 27 26  2  0
 25 28  1  6
 29 28  1  0
 30 26  1  0
 31 30  1  0
 32 31  1  0
 33 32  2  0
 31 34  1  1
 35 34  1  0
 36 35  1  0
 37 36  1  0
 38 37  1  0
 39 38  1  0
 40 38  2  0
 41 32  1  0
 42 41  1  0
 43 42  1  0
 44 43  2  0
 42 45  1  6
 46 45  1  0
 47 46  1  0
 48 46  1  0
 50 49  1  1
 51 50  1  0
 52 51  2  0
 53 50  1  0
 54 53  1  0
 55 54  2  0
 56 54  1  0
 57 51  1  0
 58 57  1  0
 59 58  1  0
 60 59  2  0
 58 61  1  1
 62 61  1  0
 63 62  1  0
 64 63  1  0
 65 64  1  0
 66 65  1  0
 67 65  2  0
 68 59  1  0
 69 68  1  1
 70 69  1  0
 71 70  2  0
 72 69  1  0
 73 72  1  0
 72 74  1  6
 75 70  1  0
 76 75  1  0
 77 76  1  0
 78 77  2  0
 76 79  1  6
 80 79  1  0
 81 80  1  0
 82 81  2  0
 83 81  1  0
 84 77  1  0
 85 84  1  1
 86 85  1  0
 87 86  2  0
 88 85  1  0
 89 88  1  0
 90 88  1  0
 92 91  1  6
 93 92  1  0
 94 93  2  0
 95 92  1  0
 96 95  1  0
 97 96  2  0
 98 96  1  0
 99 97  1  0
100 98  2  0
101100  1  0
101 99  2  0
102101  1  0
104103  1  6
105104  1  0
106105  2  0
107104  1  0
108107  1  0
109108  1  0
110109  1  0
111110  1  0
112111  1  0
113111  2  0
115114  1  1
116115  1  0
117116  2  0
118115  1  0
119118  1  0
120119  2  0
121119  1  0
122120  1  0
123122  1  0
123121  2  0
124121  1  0
125123  1  0
126124  2  0
127126  1  0
127125  2  0
128116  1  0
129128  1  0
130129  1  0
131130  2  0
129132  1  1
133132  1  0
134133  1  0
135133  1  0
136130  1  0
137136  1  1
138137  1  0
139138  2  0
140137  1  0
141140  1  0
142140  1  0
143138  1  0
144143  1  0
145144  1  0
146145  2  0
144147  1  6
148145  1  0
149148  1  0
150149  1  0
151150  2  0
149152  1  6
153152  1  0
M  END
$$$$
