
     RDKit          3D

108106  0  0  0  0  0  0  0  0999 V2000
  -29.1830  -13.9300   -4.3730 N   0  0  0  0  0  0  0  0  0  0  0  0
  -27.7900  -13.5200   -4.3680 C   0  0  2  0  0  0  0  0  0  0  0  0
  -27.4900  -12.4680   -5.4300 C   0  0  0  0  0  0  0  0  0  0  0  0
  -28.1660  -12.3580   -6.4560 O   0  0  0  0  0  0  0  0  0  0  0  0
  -26.8810  -14.7310   -4.5970 C   0  0  0  0  0  0  0  0  0  0  0  0
  -26.4570  -11.6870   -5.1540 N   0  0  0  0  0  0  0  0  0  0  0  0
  -25.8510  -10.7950   -6.1160 C   0  0  2  0  0  0  0  0  0  0  0  0
  -24.6700  -11.5180   -6.7290 C   0  0  0  0  0  0  0  0  0  0  0  0
  -23.8220  -12.0460   -6.0040 O   0  0  0  0  0  0  0  0  0  0  0  0
  -25.3670   -9.5140   -5.4460 C   0  0  0  0  0  0  0  0  0  0  0  0
  -26.3380   -8.3550   -5.3610 C   0  0  0  0  0  0  0  0  0  0  0  0
  -25.6490   -7.1330   -4.7800 C   0  0  0  0  0  0  0  0  0  0  0  0
  -26.8550   -8.0790   -6.7640 C   0  0  0  0  0  0  0  0  0  0  0  0
  -24.6120  -11.5410   -8.0560 N   0  0  0  0  0  0  0  0  0  0  0  0
  -23.4690  -12.1130   -8.7470 C   0  0  2  0  0  0  0  0  0  0  0  0
  -22.4440  -11.0250   -9.0320 C   0  0  0  0  0  0  0  0  0  0  0  0
  -22.7880   -9.9690   -9.5650 O   0  0  0  0  0  0  0  0  0  0  0  0
  -23.9080  -12.7830  -10.0410 C   0  0  2  0  0  0  0  0  0  0  0  0
  -24.7270  -13.9110   -9.7130 O   0  0  0  0  0  0  0  0  0  0  0  0
  -22.6900  -13.2390  -10.8160 C   0  0  0  0  0  0  0  0  0  0  0  0
  -21.1970  -11.2660   -8.6250 N   0  0  0  0  0  0  0  0  0  0  0  0
  -20.0970  -10.3550   -8.8990 C   0  0  2  0  0  0  0  0  0  0  0  0
  -19.4910  -10.7260  -10.2460 C   0  0  0  0  0  0  0  0  0  0  0  0
  -19.1880  -11.8980  -10.4960 O   0  0  0  0  0  0  0  0  0  0  0  0
  -19.0510  -10.4200   -7.7890 C   0  0  0  0  0  0  0  0  0  0  0  0
  -17.7070   -9.8040   -8.1330 C   0  0  0  0  0  0  0  0  0  0  0  0
  -16.6190  -10.2580   -7.1690 C   0  0  0  0  0  0  0  0  0  0  0  0
  -16.8410  -10.3330   -5.9550 O   0  0  0  0  0  0  0  0  0  0  0  0
  -15.4390  -10.5690   -7.7030 N   0  0  0  0  0  0  0  0  0  0  0  0
  -19.3380   -9.7290  -11.1170 N   0  0  0  0  0  0  0  0  0  0  0  0
  -18.9800   -9.9800  -12.5070 C   0  0  2  0  0  0  0  0  0  0  0  0
  -17.5120   -9.7360  -12.8160 C   0  0  0  0  0  0  0  0  0  0  0  0
  -16.9760  -10.3590  -13.7380 O   0  0  0  0  0  0  0  0  0  0  0  0
  -19.8550   -9.1270  -13.4330 C   0  0  0  0  0  0  0  0  0  0  0  0
  -21.2930   -9.5410  -13.4310 C   0  0  0  0  0  0  0  0  0  0  0  0
  -21.6940  -10.8230  -13.7500 N   0  0  0  0  0  0  0  0  0  0  0  0
  -22.4220   -8.8590  -13.1220 C   0  0  0  0  0  0  0  0  0  0  0  0
  -23.0100  -10.9060  -13.6560 C   0  0  0  0  0  0  0  0  0  0  0  0
  -23.4770   -9.7280  -13.2770 N   0  0  0  0  0  0  0  0  0  0  0  0
  -26.0960    3.2720   -0.0820 N   0  0  0  0  0  0  0  0  0  0  0  0
  -26.8460    2.3350   -0.8970 C   0  0  2  0  0  0  0  0  0  0  0  0
  -26.2500    0.9430   -0.7670 C   0  0  0  0  0  0  0  0  0  0  0  0
  -25.1220    0.7610   -0.2940 O   0  0  0  0  0  0  0  0  0  0  0  0
  -26.8700    2.7730   -2.3630 C   0  0  0  0  0  0  0  0  0  0  0  0
  -27.9370    3.8220   -2.6080 C   0  0  0  0  0  0  0  0  0  0  0  0
  -27.7690    4.4950   -3.9350 C   0  0  0  0  0  0  0  0  0  0  0  0
  -27.5630    5.7080   -4.0070 O   0  0  0  0  0  0  0  0  0  0  0  0
  -27.8360    3.7080   -5.0020 N   0  0  0  0  0  0  0  0  0  0  0  0
  -34.0690   -3.4270   -1.7100 N   0  0  0  0  0  0  0  0  0  0  0  0
  -35.3820   -2.8210   -1.5570 C   0  0  2  0  0  0  0  0  0  0  0  0
  -36.3100   -3.8000   -0.8620 C   0  0  0  0  0  0  0  0  0  0  0  0
  -36.2590   -5.0160   -1.0970 O   0  0  0  0  0  0  0  0  0  0  0  0
  -35.9690   -2.4100   -2.9150 C   0  0  2  0  0  0  0  0  0  0  0  0
  -35.0980   -1.3520   -3.5900 C   0  0  0  0  0  0  0  0  0  0  0  0
  -37.4100   -1.9130   -2.7400 C   0  0  0  0  0  0  0  0  0  0  0  0
  -35.3030   -1.3330   -5.0840 C   0  0  0  0  0  0  0  0  0  0  0  0
  -36.5770  -11.5130   -4.3960 N   0  0  0  0  0  0  0  0  0  0  0  0
  -35.6650  -11.1110   -5.4660 C   0  0  2  0  0  0  0  0  0  0  0  0
  -34.9230   -9.8630   -5.0240 C   0  0  0  0  0  0  0  0  0  0  0  0
  -35.5370   -8.8300   -4.7380 O   0  0  0  0  0  0  0  0  0  0  0  0
  -36.4270  -10.8480   -6.7770 C   0  0  0  0  0  0  0  0  0  0  0  0
  -35.4530  -10.4130   -7.8740 C   0  0  0  0  0  0  0  0  0  0  0  0
  -37.2220  -12.0760   -7.2330 C   0  0  0  0  0  0  0  0  0  0  0  0
  -33.6000   -9.9450   -4.9660 N   0  0  0  0  0  0  0  0  0  0  0  0
  -32.8070   -8.8160   -4.4890 C   0  0  2  0  0  0  0  0  0  0  0  0
  -32.8510   -7.6850   -5.5150 C   0  0  0  0  0  0  0  0  0  0  0  0
  -32.3840   -7.8540   -6.6430 O   0  0  0  0  0  0  0  0  0  0  0  0
  -31.3630   -9.2540   -4.2440 C   0  0  0  0  0  0  0  0  0  0  0  0
  -30.4580   -8.2220   -3.5720 C   0  0  0  0  0  0  0  0  0  0  0  0
  -29.4330   -8.8950   -2.6380 C   0  0  0  0  0  0  0  0  0  0  0  0
  -29.7590   -7.4010   -4.6470 C   0  0  0  0  0  0  0  0  0  0  0  0
  -33.3670   -6.5240   -5.1150 N   0  0  0  0  0  0  0  0  0  0  0  0
  -33.4220   -5.3560   -5.9840 C   0  0  2  0  0  0  0  0  0  0  0  0
  -32.7710   -4.1670   -5.2970 C   0  0  0  0  0  0  0  0  0  0  0  0
  -33.0450   -3.8970   -4.1250 O   0  0  0  0  0  0  0  0  0  0  0  0
  -34.8680   -5.0320   -6.3680 C   0  0  0  0  0  0  0  0  0  0  0  0
  -35.4180   -5.9960   -7.4140 C   0  0  0  0  0  0  0  0  0  0  0  0
  -36.8430   -5.6630   -7.8130 C   0  0  0  0  0  0  0  0  0  0  0  0
  -37.6260   -5.1480   -7.0030 O   0  0  0  0  0  0  0  0  0  0  0  0
  -37.1860   -5.9450   -9.0740 N   0  0  0  0  0  0  0  0  0  0  0  0
  -31.9040   -3.4450   -6.0390 N   0  0  0  0  0  0  0  0  0  0  0  0
  -31.2290   -2.2770   -5.4970 C   0  0  2  0  0  0  0  0  0  0  0  0
  -31.9190   -1.0070   -5.9620 C   0  0  0  0  0  0  0  0  0  0  0  0
  -32.5740   -0.9960   -7.0060 O   0  0  0  0  0  0  0  0  0  0  0  0
  -29.7650   -2.2560   -5.9450 C   0  0  0  0  0  0  0  0  0  0  0  0
  -28.9770   -3.4690   -5.4400 C   0  0  0  0  0  0  0  0  0  0  0  0
  -27.6200   -3.5730   -6.1050 C   0  0  0  0  0  0  0  0  0  0  0  0
  -28.8320   -3.3680   -3.9180 C   0  0  0  0  0  0  0  0  0  0  0  0
  -31.8110    0.0910   -5.2330 N   0  0  0  0  0  0  0  0  0  0  0  0
  -32.3320    1.3570   -5.7520 C   0  0  2  0  0  0  0  0  0  0  0  0
  -31.5300    1.8360   -6.9550 C   0  0  0  0  0  0  0  0  0  0  0  0
  -30.3700    1.4660   -7.1650 O   0  0  0  0  0  0  0  0  0  0  0  0
  -32.1690    2.3240   -4.5740 C   0  0  0  0  0  0  0  0  0  0  0  0
  -31.0940    1.7100   -3.7330 C   0  0  0  0  0  0  0  0  0  0  0  0
  -31.2430    0.2300   -3.8760 C   0  0  0  0  0  0  0  0  0  0  0  0
  -32.1590    2.7080   -7.7230 N   0  0  0  0  0  0  0  0  0  0  0  0
  -31.5650    3.3000   -8.9200 C   0  0  2  0  0  0  0  0  0  0  0  0
  -31.5530    4.8000   -8.6860 C   0  0  0  0  0  0  0  0  0  0  0  0
  -32.6000    5.4440   -8.7770 O   0  0  0  0  0  0  0  0  0  0  0  0
  -32.3500    2.9430  -10.1780 C   0  0  0  0  0  0  0  0  0  0  0  0
  -31.8780    3.7010  -11.4540 C   0  0  0  0  0  0  0  0  0  0  0  0
  -32.5300    3.1560  -12.7080 C   0  0  0  0  0  0  0  0  0  0  0  0
  -33.7000    2.7660  -12.6930 O   0  0  0  0  0  0  0  0  0  0  0  0
  -31.7740    3.1260  -13.8050 N   0  0  0  0  0  0  0  0  0  0  0  0
  -30.3780    5.3510   -8.3730 N   0  0  0  0  0  0  0  0  0  0  0  0
  -30.2420    6.7800   -8.2070 C   0  0  0  0  0  0  0  0  0  0  0  0
  -30.0110    7.4740   -9.5380 C   0  0  0  0  0  0  0  0  0  0  0  0
  -29.9080    6.8490  -10.5910 O   0  0  0  0  0  0  0  0  0  0  0  0
  2  1  1  0
  3  2  1  0
  4  3  2  0
  2  5  1  6
  6  3  1  0
  7  6  1  0
  8  7  1  0
  9  8  2  0
  7 10  1  1
 11 10  1  0
 12 11  1  0
 13 11  1  0
 14  8  1  0
 15 14  1  6
 16 15  1  0
 17 16  2  0
 18 15  1  0
 19 18  1  0
 18 20  1  1
 21 16  1  0
 22 21  1  0
 23 22  1  0
 24 23  2  0
 22 25  1  1
 26 25  1  0
 27 26  1  0
 28 27  2  0
 29 27  1  0
 30 23  1  0
 31 30  1  0
 32 31  1  0
 33 32  2  0
 31 34  1  6
 35 34  1  0
 36 35  1  0
 37 35  2  0
 38 36  2  0
 39 38  1  0
 39 37  1  0
 41 40  1  1
 42 41  1  0
 43 42  2  0
 44 41  1  0
 45 44  1  0
 46 45  1  0
 47 46  2  0
 48 46  1  0
 50 49  1  6
 51 50  1  0
 52 51  2  0
 53 50  1  0
 54 53  1  0
 53 55  1  1
 56 54  1  0
 58 57  1  1
 59 58  1  0
 60 59  2  0
 61 58  1  0
 62 61  1  0
 63 61  1  0
 64 59  1  0
 65 64  1  0
 66 65  1  0
 67 66  2  0
 65 68  1  6
 69 68  1  0
 70 69  1  0
 71 69  1  0
 72 66  1  0
 73 72  1  0
 74 73  1  0
 75 74  2  0
 73 76  1  1
 77 76  1  0
 78 77  1  0
 79 78  2  0
 80 78  1  0
 81 74  1  0
 82 81  1  0
 83 82  1  0
 84 83  2  0
 82 85  1  6
 86 85  1  0
 87 86  1  0
 88 86  1  0
 89 83  1  0
 90 89  1  0
 90 91  1  6
 92 91  2  0
 93 90  1  0
 94 93  1  0
 95 94  1  0
 95 89  1  0
 96 91  1  0
 97 96  1  0
 98 97  1  0
 99 98  2  0
 97100  1  6
101100  1  0
102101  1  0
103102  2  0
104102  1  0
105 98  1  0
106105  1  0
107106  1  0
108107  2  0
M  END
$$$$
