
     RDKit          3D

107107  0  0  0  0  0  0  0  0999 V2000
  160.5850  229.3530  105.9120 N   0  0  0  0  0  0  0  0  0  0  0  0
  159.4710  230.0440  105.2910 C   0  0  2  0  0  0  0  0  0  0  0  0
  158.2130  229.2880  105.6850 C   0  0  0  0  0  0  0  0  0  0  0  0
  158.2800  228.3350  106.4580 O   0  0  0  0  0  0  0  0  0  0  0  0
  159.6250  230.0820  103.7740 C   0  0  0  0  0  0  0  0  0  0  0  0
  159.6940  231.4870  103.2040 C   0  0  0  0  0  0  0  0  0  0  0  0
  160.5480  231.5280  101.9500 C   0  0  0  0  0  0  0  0  0  0  0  0
  159.7400  231.4010  100.7430 N   0  0  0  0  0  0  0  0  0  0  0  0
  159.9400  232.1050   99.6360 C   0  0  0  0  0  0  0  0  0  0  0  0
  159.1560  231.9250   98.5830 N   0  0  0  0  0  0  0  0  0  0  0  0
  160.9250  232.9900   99.5800 N   0  0  0  0  0  0  0  0  0  0  0  0
  166.8460  240.7400  107.5710 N   0  0  0  0  0  0  0  0  0  0  0  0
  167.8760  240.0320  106.8330 C   0  0  2  0  0  0  0  0  0  0  0  0
  168.8210  239.2580  107.7300 C   0  0  0  0  0  0  0  0  0  0  0  0
  169.9840  239.0750  107.3750 O   0  0  0  0  0  0  0  0  0  0  0  0
  168.6700  241.0070  105.9770 C   0  0  0  0  0  0  0  0  0  0  0  0
  167.8790  241.5690  104.8410 C   0  0  0  0  0  0  0  0  0  0  0  0
  167.1020  242.6860  105.0110 C   0  0  0  0  0  0  0  0  0  0  0  0
  167.9040  240.9790  103.6050 C   0  0  0  0  0  0  0  0  0  0  0  0
  166.3760  243.1970  103.9810 C   0  0  0  0  0  0  0  0  0  0  0  0
  167.1840  241.4860  102.5740 C   0  0  0  0  0  0  0  0  0  0  0  0
  166.4200  242.5940  102.7660 C   0  0  0  0  0  0  0  0  0  0  0  0
  165.6920  243.1070  101.7290 O   0  0  0  0  0  0  0  0  0  0  0  0
  169.6310  235.1370  102.2820 N   0  0  0  0  0  0  0  0  0  0  0  0
  168.8600  235.5580  103.4390 C   0  0  2  0  0  0  0  0  0  0  0  0
  167.4200  235.7930  103.0420 C   0  0  0  0  0  0  0  0  0  0  0  0
  167.1470  236.5200  102.0840 O   0  0  0  0  0  0  0  0  0  0  0  0
  169.4390  236.8230  104.0480 C   0  0  0  0  0  0  0  0  0  0  0  0
  169.5340  237.8230  103.0630 O   0  0  0  0  0  0  0  0  0  0  0  0
  166.5030  235.1840  103.7760 N   0  0  0  0  0  0  0  0  0  0  0  0
  165.0980  235.5370  103.6970 C   0  0  2  0  0  0  0  0  0  0  0  0
  164.9810  237.0040  104.0570 C   0  0  0  0  0  0  0  0  0  0  0  0
  165.4050  237.4110  105.1360 O   0  0  0  0  0  0  0  0  0  0  0  0
  164.2800  234.7200  104.6810 C   0  0  0  0  0  0  0  0  0  0  0  0
  164.3220  233.2340  104.5520 C   0  0  0  0  0  0  0  0  0  0  0  0
  163.7370  232.6090  103.4860 C   0  0  0  0  0  0  0  0  0  0  0  0
  164.8920  232.4540  105.5330 C   0  0  0  0  0  0  0  0  0  0  0  0
  163.7410  231.2640  103.3830 C   0  0  0  0  0  0  0  0  0  0  0  0
  164.8980  231.1050  105.4360 C   0  0  0  0  0  0  0  0  0  0  0  0
  164.3180  230.5180  104.3540 C   0  0  0  0  0  0  0  0  0  0  0  0
  164.3140  229.1640  104.2270 O   0  0  0  0  0  0  0  0  0  0  0  0
  164.4270  237.8150  103.1830 N   0  0  0  0  0  0  0  0  0  0  0  0
  164.1080  239.1320  103.6720 C   0  0  0  0  0  0  0  0  0  0  0  0
  162.6670  239.1510  104.0930 C   0  0  0  0  0  0  0  0  0  0  0  0
  161.7900  239.4210  103.2770 O   0  0  0  0  0  0  0  0  0  0  0  0
  162.4000  238.9030  105.3640 N   0  0  0  0  0  0  0  0  0  0  0  0
  161.0270  238.7800  105.8110 C   0  0  2  0  0  0  0  0  0  0  0  0
  160.4310  240.1590  105.9980 C   0  0  0  0  0  0  0  0  0  0  0  0
  161.0900  241.0670  106.4990 O   0  0  0  0  0  0  0  0  0  0  0  0
  160.9560  238.0080  107.1170 C   0  0  0  0  0  0  0  0  0  0  0  0
  161.1900  236.5480  106.9710 C   0  0  0  0  0  0  0  0  0  0  0  0
  160.4480  235.8040  106.1000 C   0  0  0  0  0  0  0  0  0  0  0  0
  162.1290  235.9110  107.7320 C   0  0  0  0  0  0  0  0  0  0  0  0
  160.6540  234.4720  105.9830 C   0  0  0  0  0  0  0  0  0  0  0  0
  162.3290  234.5790  107.6090 C   0  0  0  0  0  0  0  0  0  0  0  0
  161.5970  233.8650  106.7340 C   0  0  0  0  0  0  0  0  0  0  0  0
  159.1870  240.3180  105.5900 N   0  0  0  0  0  0  0  0  0  0  0  0
  158.5200  241.5870  105.7570 C   0  0  2  0  0  0  0  0  0  0  0  0
  157.0860  241.3510  106.1740 C   0  0  0  0  0  0  0  0  0  0  0  0
  156.4730  240.3730  105.7510 O   0  0  0  0  0  0  0  0  0  0  0  0
  158.5450  242.4020  104.4680 C   0  0  0  0  0  0  0  0  0  0  0  0
  159.8920  242.9340  104.1410 C   0  0  0  0  0  0  0  0  0  0  0  0
  159.8170  244.2360  103.4220 C   0  0  0  0  0  0  0  0  0  0  0  0
  160.8140  244.9320  103.2700 O   0  0  0  0  0  0  0  0  0  0  0  0
  158.6270  244.5870  102.9720 N   0  0  0  0  0  0  0  0  0  0  0  0
  154.2280  242.5100  105.4710 N   0  0  0  0  0  0  0  0  0  0  0  0
  153.1920  242.4430  104.4470 C   0  0  2  0  0  0  0  0  0  0  0  0
  153.4950  241.3720  103.4120 C   0  0  0  0  0  0  0  0  0  0  0  0
  153.4450  241.6220  102.2160 O   0  0  0  0  0  0  0  0  0  0  0  0
  153.0310  243.7960  103.7890 C   0  0  2  0  0  0  0  0  0  0  0  0
  152.3530  243.6340  102.5410 O   0  0  0  0  0  0  0  0  0  0  0  0
  154.3830  244.4130  103.5510 C   0  0  0  0  0  0  0  0  0  0  0  0
  153.7930  240.1620  103.8540 N   0  0  0  0  0  0  0  0  0  0  0  0
  154.0250  239.0400  102.9640 C   0  0  2  0  0  0  0  0  0  0  0  0
  152.8420  238.0950  103.0200 C   0  0  0  0  0  0  0  0  0  0  0  0
  152.3090  237.8130  104.0940 O   0  0  0  0  0  0  0  0  0  0  0  0
  155.2790  238.2700  103.3480 C   0  0  0  0  0  0  0  0  0  0  0  0
  156.5260  238.9520  102.9170 C   0  0  0  0  0  0  0  0  0  0  0  0
  156.4830  239.9360  102.1950 O   0  0  0  0  0  0  0  0  0  0  0  0
  157.6570  238.4410  103.3560 N   0  0  0  0  0  0  0  0  0  0  0  0
  152.4350  237.6020  101.8630 N   0  0  0  0  0  0  0  0  0  0  0  0
  151.4120  236.5860  101.8370 C   0  0  0  0  0  0  0  0  0  0  0  0
  151.8300  235.3690  102.6300 C   0  0  0  0  0  0  0  0  0  0  0  0
  153.0080  235.0680  102.7730 O   0  0  0  0  0  0  0  0  0  0  0  0
  150.8430  234.6700  103.1810 N   0  0  0  0  0  0  0  0  0  0  0  0
  151.1410  233.4470  103.9070 C   0  0  2  0  0  0  0  0  0  0  0  0
  151.8950  232.5100  102.9820 C   0  0  0  0  0  0  0  0  0  0  0  0
  151.7300  232.5600  101.7570 O   0  0  0  0  0  0  0  0  0  0  0  0
  149.8560  232.8040  104.4350 C   0  0  0  0  0  0  0  0  0  0  0  0
  150.1830  231.7830  105.4840 C   0  0  0  0  0  0  0  0  0  0  0  0
  148.9590  233.8610  105.0020 C   0  0  0  0  0  0  0  0  0  0  0  0
  152.7430  231.6740  103.5470 N   0  0  0  0  0  0  0  0  0  0  0  0
  153.6570  230.9210  102.7320 C   0  0  0  0  0  0  0  0  0  0  0  0
  154.9050  231.6800  102.3820 C   0  0  0  0  0  0  0  0  0  0  0  0
  155.7850  231.1190  101.7320 O   0  0  0  0  0  0  0  0  0  0  0  0
  154.9910  232.9450  102.7560 N   0  0  0  0  0  0  0  0  0  0  0  0
  156.2560  233.6470  102.7950 C   0  0  2  0  0  0  0  0  0  0  0  0
  156.5250  234.2700  104.1420 C   0  0  0  0  0  0  0  0  0  0  0  0
  157.5010  235.0100  104.2700 O   0  0  0  0  0  0  0  0  0  0  0  0
  156.3120  234.7440  101.7340 C   0  0  0  0  0  0  0  0  0  0  0  0
  156.2000  234.2390  100.3330 C   0  0  0  0  0  0  0  0  0  0  0  0
  157.1220  233.3540   99.8290 C   0  0  0  0  0  0  0  0  0  0  0  0
  155.1780  234.6510   99.5130 C   0  0  0  0  0  0  0  0  0  0  0  0
  157.0300  232.8870   98.5560 C   0  0  0  0  0  0  0  0  0  0  0  0
  155.0740  234.1880   98.2370 C   0  0  0  0  0  0  0  0  0  0  0  0
  156.0040  233.3060   97.7640 C   0  0  0  0  0  0  0  0  0  0  0  0
  155.9080  232.8380   96.4830 O   0  0  0  0  0  0  0  0  0  0  0  0
  2  1  1  1
  3  2  1  0
  4  3  2  0
  5  2  1  0
  6  5  1  0
  7  6  1  0
  8  7  1  0
  9  8  1  0
 10  9  1  0
 11  9  2  0
 13 12  1  1
 14 13  1  0
 15 14  2  0
 16 13  1  0
 17 16  1  0
 18 17  2  0
 19 17  1  0
 20 18  1  0
 21 19  2  0
 22 21  1  0
 22 20  2  0
 23 22  1  0
 25 24  1  6
 26 25  1  0
 27 26  2  0
 28 25  1  0
 29 28  1  0
 30 26  1  0
 31 30  1  0
 32 31  1  0
 33 32  2  0
 31 34  1  1
 35 34  1  0
 36 35  2  0
 37 35  1  0
 38 36  1  0
 39 37  2  0
 40 38  2  0
 40 39  1  0
 41 40  1  0
 42 32  1  0
 43 42  1  0
 44 43  1  0
 45 44  2  0
 46 44  1  0
 47 46  1  0
 48 47  1  0
 49 48  2  0
 47 50  1  1
 51 50  1  0
 52 51  2  0
 53 51  1  0
 54 52  1  0
 55 53  2  0
 56 55  1  0
 56 54  2  0
 57 48  1  0
 58 57  1  0
 59 58  1  0
 60 59  2  0
 58 61  1  6
 62 61  1  0
 63 62  1  0
 64 63  2  0
 65 63  1  0
 67 66  1  1
 68 67  1  0
 69 68  2  0
 70 67  1  0
 71 70  1  0
 70 72  1  6
 73 68  1  0
 74 73  1  0
 75 74  1  0
 76 75  2  0
 74 77  1  1
 78 77  1  0
 79 78  2  0
 80 78  1  0
 81 75  1  0
 82 81  1  0
 83 82  1  0
 84 83  2  0
 85 83  1  0
 86 85  1  6
 87 86  1  0
 88 87  2  0
 89 86  1  0
 90 89  1  0
 91 89  1  0
 92 87  1  0
 93 92  1  0
 94 93  1  0
 95 94  2  0
 96 94  1  0
 97 96  1  0
 98 97  1  0
 99 98  2  0
 97100  1  6
101100  1  0
102101  2  0
103101  1  0
104102  1  0
105103  2  0
106105  1  0
106104  2  0
107106  1  0
M  END
$$$$
