
     RDKit          3D

138142  0  0  0  0  0  0  0  0999 V2000
  296.4290  236.4420  205.7300 N   0  0  0  0  0  0  0  0  0  0  0  0
  296.6200  236.4550  204.2830 C   0  0  2  0  0  0  0  0  0  0  0  0
  297.6110  237.5310  203.8600 C   0  0  0  0  0  0  0  0  0  0  0  0
  298.3720  237.3320  202.9060 O   0  0  0  0  0  0  0  0  0  0  0  0
  295.2810  236.6600  203.5720 C   0  0  0  0  0  0  0  0  0  0  0  0
  294.4790  235.4260  203.1420 C   0  0  0  0  0  0  0  0  0  0  0  0
  293.9290  234.6510  204.3330 C   0  0  0  0  0  0  0  0  0  0  0  0
  293.3540  235.8290  202.2000 C   0  0  0  0  0  0  0  0  0  0  0  0
  297.6190  238.6710  204.5530 N   0  0  0  0  0  0  0  0  0  0  0  0
  298.5560  239.7400  204.2270 C   0  0  2  0  0  0  0  0  0  0  0  0
  299.9210  239.5140  204.8650 C   0  0  0  0  0  0  0  0  0  0  0  0
  300.9420  239.8940  204.2820 O   0  0  0  0  0  0  0  0  0  0  0  0
  297.9820  241.0890  204.6660 C   0  0  0  0  0  0  0  0  0  0  0  0
  298.8500  242.2790  204.3210 C   0  0  0  0  0  0  0  0  0  0  0  0
  298.9050  242.7680  203.0200 C   0  0  0  0  0  0  0  0  0  0  0  0
  299.6060  242.9200  205.2970 C   0  0  0  0  0  0  0  0  0  0  0  0
  299.6960  243.8590  202.6990 C   0  0  0  0  0  0  0  0  0  0  0  0
  300.4010  244.0110  204.9860 C   0  0  0  0  0  0  0  0  0  0  0  0
  300.4410  244.4750  203.6860 C   0  0  0  0  0  0  0  0  0  0  0  0
  301.2280  245.5590  203.3720 O   0  0  0  0  0  0  0  0  0  0  0  0
  299.9600  238.9010  206.0460 N   0  0  0  0  0  0  0  0  0  0  0  0
  301.2040  238.6470  206.7590 C   0  0  2  0  0  0  0  0  0  0  0  0
  301.8100  237.2870  206.4310 C   0  0  0  0  0  0  0  0  0  0  0  0
  302.6910  236.8230  207.1620 O   0  0  0  0  0  0  0  0  0  0  0  0
  300.9770  238.7630  208.2680 C   0  0  0  0  0  0  0  0  0  0  0  0
  300.4320  240.1180  208.6730 C   0  0  0  0  0  0  0  0  0  0  0  0
  300.7100  241.1290  208.0280 O   0  0  0  0  0  0  0  0  0  0  0  0
  299.6490  240.1450  209.7450 N   0  0  0  0  0  0  0  0  0  0  0  0
  301.3620  236.6400  205.3530 N   0  0  0  0  0  0  0  0  0  0  0  0
  301.9070  235.3390  204.9840 C   0  0  2  0  0  0  0  0  0  0  0  0
  303.2760  235.4560  204.3270 C   0  0  0  0  0  0  0  0  0  0  0  0
  304.0770  234.5180  204.4240 O   0  0  0  0  0  0  0  0  0  0  0  0
  300.9410  234.6080  204.0510 C   0  0  0  0  0  0  0  0  0  0  0  0
  301.4570  233.3440  203.6720 O   0  0  0  0  0  0  0  0  0  0  0  0
  303.5400  236.5930  203.6620 N   0  0  0  0  0  0  0  0  0  0  0  0
  304.8000  236.8950  202.9640 C   0  0  2  0  0  0  0  0  0  0  0  0
  305.1390  235.8410  201.9110 C   0  0  0  0  0  0  0  0  0  0  0  0
  306.2970  235.4550  201.7400 O   0  0  0  0  0  0  0  0  0  0  0  0
  305.9620  237.0830  203.9470 C   0  0  0  0  0  0  0  0  0  0  0  0
  304.1140  235.3700  201.1950 N   0  0  0  0  0  0  0  0  0  0  0  0
  304.3150  234.3700  200.1550 C   0  0  2  0  0  0  0  0  0  0  0  0
  303.5090  234.6640  198.8950 C   0  0  0  0  0  0  0  0  0  0  0  0
  303.5270  233.8490  197.9640 O   0  0  0  0  0  0  0  0  0  0  0  0
  303.9630  232.9710  200.6770 C   0  0  0  0  0  0  0  0  0  0  0  0
  302.6110  232.9090  201.0960 O   0  0  0  0  0  0  0  0  0  0  0  0
  302.8060  235.7910  198.8340 N   0  0  0  0  0  0  0  0  0  0  0  0
  302.0050  236.1640  197.6770 C   0  0  2  0  0  0  0  0  0  0  0  0
  302.6380  237.3650  196.9900 C   0  0  0  0  0  0  0  0  0  0  0  0
  303.0370  238.3270  197.6550 O   0  0  0  0  0  0  0  0  0  0  0  0
  300.5650  236.4870  198.0860 C   0  0  0  0  0  0  0  0  0  0  0  0
  299.8480  235.3400  198.7400 C   0  0  0  0  0  0  0  0  0  0  0  0
  299.2270  234.3660  197.9720 C   0  0  0  0  0  0  0  0  0  0  0  0
  299.7900  235.2380  200.1230 C   0  0  0  0  0  0  0  0  0  0  0  0
  298.5630  233.3080  198.5700 C   0  0  0  0  0  0  0  0  0  0  0  0
  299.1280  234.1830  200.7290 C   0  0  0  0  0  0  0  0  0  0  0  0
  298.5140  233.2170  199.9500 C   0  0  0  0  0  0  0  0  0  0  0  0
  302.7290  237.3060  195.6640 N   0  0  0  0  0  0  0  0  0  0  0  0
  303.2960  238.3880  194.8720 C   0  0  2  0  0  0  0  0  0  0  0  0
  302.2570  239.4230  194.4580 C   0  0  0  0  0  0  0  0  0  0  0  0
  302.6170  240.4310  193.8410 O   0  0  0  0  0  0  0  0  0  0  0  0
  303.9890  237.8230  193.6280 C   0  0  0  0  0  0  0  0  0  0  0  0
  303.0730  237.1150  192.8100 O   0  0  0  0  0  0  0  0  0  0  0  0
  300.9850  239.2000  194.7830 N   0  0  0  0  0  0  0  0  0  0  0  0
  299.9250  240.1350  194.4240 C   0  0  2  0  0  0  0  0  0  0  0  0
  298.8180  240.0430  195.4610 C   0  0  0  0  0  0  0  0  0  0  0  0
  298.2430  238.9690  195.6630 O   0  0  0  0  0  0  0  0  0  0  0  0
  299.3700  239.8400  193.0240 C   0  0  2  0  0  0  0  0  0  0  0  0
  300.3690  240.1220  192.0360 O   0  0  0  0  0  0  0  0  0  0  0  0
  298.1360  240.6870  192.7460 C   0  0  0  0  0  0  0  0  0  0  0  0
  298.5250  241.1680  196.1170 N   0  0  0  0  0  0  0  0  0  0  0  0
  297.4320  241.2410  197.0900 C   0  0  2  0  0  0  0  0  0  0  0  0
  296.8550  242.6550  197.0020 C   0  0  0  0  0  0  0  0  0  0  0  0
  297.3400  243.5790  197.6580 O   0  0  0  0  0  0  0  0  0  0  0  0
  297.9120  240.9090  198.4950 C   0  0  0  0  0  0  0  0  0  0  0  0
  296.8040  240.7790  199.5020 C   0  0  0  0  0  0  0  0  0  0  0  0
  296.0830  239.5990  199.6090 C   0  0  0  0  0  0  0  0  0  0  0  0
  296.4890  241.8330  200.3470 C   0  0  0  0  0  0  0  0  0  0  0  0
  295.0620  239.4740  200.5370 C   0  0  0  0  0  0  0  0  0  0  0  0
  295.4700  241.7160  201.2770 C   0  0  0  0  0  0  0  0  0  0  0  0
  294.7570  240.5340  201.3720 C   0  0  0  0  0  0  0  0  0  0  0  0
  295.8150  242.8060  196.1830 N   0  0  0  0  0  0  0  0  0  0  0  0
  295.2120  244.1080  195.8950 C   0  0  2  0  0  0  0  0  0  0  0  0
  293.7140  244.0250  196.1740 C   0  0  0  0  0  0  0  0  0  0  0  0
  292.9650  243.4250  195.3980 O   0  0  0  0  0  0  0  0  0  0  0  0
  295.4770  244.5290  194.4510 C   0  0  0  0  0  0  0  0  0  0  0  0
  296.9490  244.6310  194.0850 C   0  0  0  0  0  0  0  0  0  0  0  0
  297.6420  245.7140  194.8910 C   0  0  0  0  0  0  0  0  0  0  0  0
  299.1510  245.6120  194.7670 C   0  0  0  0  0  0  0  0  0  0  0  0
  299.6570  244.3410  195.3550 N   0  0  0  0  0  0  0  0  0  0  0  0
  293.2820  244.6270  197.2770 N   0  0  0  0  0  0  0  0  0  0  0  0
  291.8690  244.7280  197.6110 C   0  0  2  0  0  0  0  0  0  0  0  0
  291.3340  246.0860  197.1770 C   0  0  0  0  0  0  0  0  0  0  0  0
  292.0060  247.1090  197.3320 O   0  0  0  0  0  0  0  0  0  0  0  0
  291.6400  244.5290  199.1100 C   0  0  0  0  0  0  0  0  0  0  0  0
  291.8640  242.8310  199.6940 S   0  0  0  0  0  0  0  0  0  0  0  0
  290.1220  246.0870  196.6320 N   0  0  0  0  0  0  0  0  0  0  0  0
  289.4960  247.2900  196.1020 C   0  0  2  0  0  0  0  0  0  0  0  0
  288.3100  247.6900  196.9680 C   0  0  0  0  0  0  0  0  0  0  0  0
  287.6580  246.8380  197.5800 O   0  0  0  0  0  0  0  0  0  0  0  0
  289.0350  247.0760  194.6570 C   0  0  0  0  0  0  0  0  0  0  0  0
  290.1610  246.8030  193.6840 C   0  0  0  0  0  0  0  0  0  0  0  0
  291.4220  247.3600  193.8740 C   0  0  0  0  0  0  0  0  0  0  0  0
  289.9650  245.9860  192.5760 C   0  0  0  0  0  0  0  0  0  0  0  0
  292.4550  247.1130  192.9860 C   0  0  0  0  0  0  0  0  0  0  0  0
  290.9920  245.7320  191.6840 C   0  0  0  0  0  0  0  0  0  0  0  0
  292.2330  246.2980  191.8940 C   0  0  0  0  0  0  0  0  0  0  0  0
  293.2560  246.0500  191.0090 O   0  0  0  0  0  0  0  0  0  0  0  0
  288.0390  248.9930  197.0200 N   0  0  0  0  0  0  0  0  0  0  0  0
  286.8870  249.5020  197.7370 C   0  0  0  0  0  0  0  0  0  0  0  0
  287.1590  249.8790  199.1790 C   0  0  0  0  0  0  0  0  0  0  0  0
  286.7490  250.9520  199.6320 O   0  0  0  0  0  0  0  0  0  0  0  0
  287.8500  249.0070  199.9120 N   0  0  0  0  0  0  0  0  0  0  0  0
  288.1140  249.2260  201.3290 C   0  0  2  0  0  0  0  0  0  0  0  0
  289.4220  248.5260  201.6810 C   0  0  0  0  0  0  0  0  0  0  0  0
  289.9250  247.6950  200.9200 O   0  0  0  0  0  0  0  0  0  0  0  0
  286.9240  248.7370  202.1980 C   0  0  0  0  0  0  0  0  0  0  0  0
  287.0290  247.2470  202.5040 C   0  0  0  0  0  0  0  0  0  0  0  0
  286.7790  249.5730  203.4730 C   0  0  0  0  0  0  0  0  0  0  0  0
  289.9870  248.8960  202.8310 N   0  0  0  0  0  0  0  0  0  0  0  0
  291.2510  248.3370  203.2830 C   0  0  2  0  0  0  0  0  0  0  0  0
  291.0900  246.8630  203.6620 C   0  0  0  0  0  0  0  0  0  0  0  0
  290.0250  246.4490  204.1310 O   0  0  0  0  0  0  0  0  0  0  0  0
  291.7730  249.1310  204.4800 C   0  0  0  0  0  0  0  0  0  0  0  0
  292.9220  248.5330  205.0530 O   0  0  0  0  0  0  0  0  0  0  0  0
  292.1280  246.0440  203.4440 N   0  0  0  0  0  0  0  0  0  0  0  0
  292.0490  244.6320  203.8590 C   0  0  2  0  0  0  0  0  0  0  0  0
  292.0060  244.4370  205.3640 C   0  0  0  0  0  0  0  0  0  0  0  0
  291.4350  243.4390  205.8220 O   0  0  0  0  0  0  0  0  0  0  0  0
  293.3170  244.0140  203.2530 C   0  0  0  0  0  0  0  0  0  0  0  0
  294.2400  245.1670  203.0450 C   0  0  0  0  0  0  0  0  0  0  0  0
  293.3550  246.3170  202.6770 C   0  0  0  0  0  0  0  0  0  0  0  0
  288.7790  247.0290  187.7340 N   0  0  0  0  0  0  0  0  0  0  0  0
  287.5620  247.6370  187.1750 C   0  0  2  0  0  0  0  0  0  0  0  0
  287.8760  248.5220  185.9750 C   0  0  0  0  0  0  0  0  0  0  0  0
  288.6180  249.5010  186.0830 O   0  0  0  0  0  0  0  0  0  0  0  0
  286.9980  248.4530  188.3460 C   0  0  0  0  0  0  0  0  0  0  0  0
  288.1310  248.6000  189.3070 C   0  0  0  0  0  0  0  0  0  0  0  0
  288.9170  247.3400  189.1680 C   0  0  0  0  0  0  0  0  0  0  0  0
  2  1  1  1
  3  2  1  0
  4  3  2  0
  5  2  1  0
  6  5  1  0
  7  6  1  0
  8  6  1  0
  9  3  1  0
 10  9  1  0
 11 10  1  0
 12 11  2  0
 10 13  1  1
 14 13  1  0
 15 14  2  0
 16 14  1  0
 17 15  1  0
 18 16  2  0
 19 17  2  0
 19 18  1  0
 20 19  1  0
 21 11  1  0
 22 21  1  0
 23 22  1  0
 24 23  2  0
 22 25  1  1
 26 25  1  0
 27 26  2  0
 28 26  1  0
 29 23  1  0
 30 29  1  0
 31 30  1  0
 32 31  2  0
 30 33  1  6
 34 33  1  0
 35 31  1  0
 36 35  1  0
 37 36  1  0
 38 37  2  0
 36 39  1  1
 40 37  1  0
 41 40  1  0
 42 41  1  0
 43 42  2  0
 41 44  1  1
 45 44  1  0
 46 42  1  0
 47 46  1  0
 48 47  1  0
 49 48  2  0
 47 50  1  1
 51 50  1  0
 52 51  2  0
 53 51  1  0
 54 52  1  0
 55 53  2  0
 56 55  1  0
 56 54  2  0
 57 48  1  0
 58 57  1  0
 59 58  1  0
 60 59  2  0
 58 61  1  6
 62 61  1  0
 63 59  1  0
 64 63  1  1
 65 64  1  0
 66 65  2  0
 67 64  1  0
 68 67  1  0
 67 69  1  6
 70 65  1  0
 71 70  1  0
 72 71  1  0
 73 72  2  0
 71 74  1  1
 75 74  1  0
 76 75  2  0
 77 75  1  0
 78 76  1  0
 79 77  2  0
 80 78  2  0
 80 79  1  0
 81 72  1  0
 82 81  1  0
 83 82  1  0
 84 83  2  0
 82 85  1  6
 86 85  1  0
 87 86  1  0
 88 87  1  0
 89 88  1  0
 90 83  1  0
 91 90  1  0
 92 91  1  0
 93 92  2  0
 91 94  1  1
 95 94  1  0
 96 92  1  0
 97 96  1  0
 98 97  1  0
 99 98  2  0
 97100  1  6
101100  1  0
102101  2  0
103101  1  0
104102  1  0
105103  2  0
106105  1  0
106104  2  0
107106  1  0
108 98  1  0
109108  1  0
110109  1  0
111110  2  0
112110  1  0
113112  1  6
114113  1  0
115114  2  0
116113  1  0
117116  1  0
118116  1  0
119114  1  0
120119  1  0
121120  1  0
122121  2  0
120123  1  1
124123  1  0
125121  1  0
126125  1  0
126127  1  1
128127  2  0
129126  1  0
130129  1  0
131130  1  0
131125  1  0
133132  1  0
133134  1  6
135134  2  0
136133  1  0
137136  1  0
138137  1  0
138132  1  0
M  END
$$$$
