
     RDKit          3D

103 98  0  0  0  0  0  0  0  0999 V2000
   82.7850  100.4700  129.1230 N   0  0  0  0  0  0  0  0  0  0  0  0
   84.0640  100.8440  128.5450 C   0  0  2  0  0  0  0  0  0  0  0  0
   83.8490  101.1910  127.0870 C   0  0  0  0  0  0  0  0  0  0  0  0
   84.3510  102.2010  126.5850 O   0  0  0  0  0  0  0  0  0  0  0  0
   85.0950   99.7270  128.7280 C   0  0  0  0  0  0  0  0  0  0  0  0
   86.2720   99.9740  127.8350 C   0  0  0  0  0  0  0  0  0  0  0  0
   85.5450   99.7000  130.1580 C   0  0  0  0  0  0  0  0  0  0  0  0
   83.0720  100.3720  126.3960 N   0  0  0  0  0  0  0  0  0  0  0  0
   82.6900  100.6030  125.0160 C   0  0  2  0  0  0  0  0  0  0  0  0
   81.1720  100.5450  124.9880 C   0  0  0  0  0  0  0  0  0  0  0  0
   80.5890   99.5020  125.2920 O   0  0  0  0  0  0  0  0  0  0  0  0
   83.3210   99.5840  124.0790 C   0  0  0  0  0  0  0  0  0  0  0  0
   84.6390  100.0670  123.5290 C   0  0  0  0  0  0  0  0  0  0  0  0
   84.8100   99.6410  122.0900 C   0  0  0  0  0  0  0  0  0  0  0  0
   85.9140  100.4300  121.4190 C   0  0  0  0  0  0  0  0  0  0  0  0
   85.8500  100.3120  119.9390 N   0  0  0  0  0  0  0  0  0  0  0  0
   79.4270   98.0520  120.3150 N   0  0  0  0  0  0  0  0  0  0  0  0
   80.4220   97.1600  119.7620 C   0  0  2  0  0  0  0  0  0  0  0  0
   79.8280   96.4870  118.5420 C   0  0  0  0  0  0  0  0  0  0  0  0
   78.6120   96.4550  118.3570 O   0  0  0  0  0  0  0  0  0  0  0  0
   80.8880   96.1230  120.7890 C   0  0  0  0  0  0  0  0  0  0  0  0
   82.3350   95.7110  120.6000 C   0  0  0  0  0  0  0  0  0  0  0  0
   83.0570   95.4770  121.9020 C   0  0  0  0  0  0  0  0  0  0  0  0
   82.5350   95.8930  122.9500 O   0  0  0  0  0  0  0  0  0  0  0  0
   84.1490   94.8800  121.8800 O   0  0  0  0  0  0  0  0  0  0  0  0
   80.7030   95.9520  117.7020 N   0  0  0  0  0  0  0  0  0  0  0  0
   80.2790   95.3270  116.4560 C   0  0  2  0  0  0  0  0  0  0  0  0
   81.1950   94.1360  116.2160 C   0  0  0  0  0  0  0  0  0  0  0  0
   82.3220   94.2980  115.7440 O   0  0  0  0  0  0  0  0  0  0  0  0
   80.3380   96.3210  115.3040 C   0  0  0  0  0  0  0  0  0  0  0  0
   79.6710   95.8430  114.0510 C   0  0  0  0  0  0  0  0  0  0  0  0
   79.6190   96.6030  112.9030 N   0  0  0  0  0  0  0  0  0  0  0  0
   78.9950   94.7030  113.7780 C   0  0  0  0  0  0  0  0  0  0  0  0
   78.9660   95.9390  111.9680 C   0  0  0  0  0  0  0  0  0  0  0  0
   78.5720   94.7850  112.4750 N   0  0  0  0  0  0  0  0  0  0  0  0
   80.7300   92.9520  116.5850 N   0  0  0  0  0  0  0  0  0  0  0  0
   81.5590   91.7590  116.5220 C   0  0  2  0  0  0  0  0  0  0  0  0
   80.8860   90.9150  115.4530 C   0  0  0  0  0  0  0  0  0  0  0  0
   79.9310   91.3800  114.8360 O   0  0  0  0  0  0  0  0  0  0  0  0
   81.6280   91.0610  117.8860 C   0  0  2  0  0  0  0  0  0  0  0  0
   82.5790   89.8660  117.8490 C   0  0  0  0  0  0  0  0  0  0  0  0
   80.2560   90.6350  118.3040 C   0  0  0  0  0  0  0  0  0  0  0  0
   83.0700   89.4110  119.1490 C   0  0  0  0  0  0  0  0  0  0  0  0
   81.3570   89.7040  115.1890 N   0  0  0  0  0  0  0  0  0  0  0  0
   80.8110   88.9000  114.1150 C   0  0  2  0  0  0  0  0  0  0  0  0
   80.4800   87.5330  114.6810 C   0  0  0  0  0  0  0  0  0  0  0  0
   80.9280   87.1670  115.7670 O   0  0  0  0  0  0  0  0  0  0  0  0
   81.7640   88.7820  112.9220 C   0  0  0  0  0  0  0  0  0  0  0  0
   83.1970   88.9450  113.3040 C   0  0  0  0  0  0  0  0  0  0  0  0
   83.7610   88.1060  113.9950 O   0  0  0  0  0  0  0  0  0  0  0  0
   83.8100   90.0280  112.8480 N   0  0  0  0  0  0  0  0  0  0  0  0
   82.3890   84.1790  116.8900 N   0  0  0  0  0  0  0  0  0  0  0  0
   83.3600   84.7030  117.8320 C   0  0  2  0  0  0  0  0  0  0  0  0
   82.6940   84.8860  119.1910 C   0  0  0  0  0  0  0  0  0  0  0  0
   81.6080   84.3620  119.4490 O   0  0  0  0  0  0  0  0  0  0  0  0
   83.9430   85.9950  117.2790 C   0  0  0  0  0  0  0  0  0  0  0  0
   84.7200   85.7770  116.0000 C   0  0  0  0  0  0  0  0  0  0  0  0
   85.8710   86.7400  115.8360 C   0  0  0  0  0  0  0  0  0  0  0  0
   86.0880   87.5650  116.7430 O   0  0  0  0  0  0  0  0  0  0  0  0
   86.5510   86.6780  114.7920 O   0  0  0  0  0  0  0  0  0  0  0  0
   82.9570   90.3830  124.3510 N   0  0  0  0  0  0  0  0  0  0  0  0
   83.1570   90.7160  125.7530 C   0  0  2  0  0  0  0  0  0  0  0  0
   82.7570   92.1610  125.9870 C   0  0  0  0  0  0  0  0  0  0  0  0
   83.5430   93.0730  125.7350 O   0  0  0  0  0  0  0  0  0  0  0  0
   84.5960   90.4670  126.1770 C   0  0  0  0  0  0  0  0  0  0  0  0
   84.8190   90.6770  127.6530 C   0  0  0  0  0  0  0  0  0  0  0  0
   86.4930   90.4280  128.2340 S   0  0  0  0  0  0  0  0  0  0  0  0
   87.2960   91.7770  127.4280 C   0  0  0  0  0  0  0  0  0  0  0  0
   81.5670   92.3740  126.5200 N   0  0  0  0  0  0  0  0  0  0  0  0
   81.1630   93.6810  127.0090 C   0  0  2  0  0  0  0  0  0  0  0  0
   81.6360   93.8540  128.4420 C   0  0  0  0  0  0  0  0  0  0  0  0
   81.6060   92.9060  129.2160 O   0  0  0  0  0  0  0  0  0  0  0  0
   79.6490   93.8270  126.9430 C   0  0  0  0  0  0  0  0  0  0  0  0
   78.9850   93.1390  125.7630 C   0  0  0  0  0  0  0  0  0  0  0  0
   77.5080   93.2880  125.8810 C   0  0  0  0  0  0  0  0  0  0  0  0
   79.4480   93.7780  124.4860 C   0  0  0  0  0  0  0  0  0  0  0  0
   82.0960   95.0430  128.8080 N   0  0  0  0  0  0  0  0  0  0  0  0
   82.5240   95.2430  130.1880 C   0  0  2  0  0  0  0  0  0  0  0  0
   82.0140   96.5690  130.7240 C   0  0  0  0  0  0  0  0  0  0  0  0
   82.1910   97.6130  130.0920 O   0  0  0  0  0  0  0  0  0  0  0  0
   84.0460   95.1450  130.3390 C   0  0  0  0  0  0  0  0  0  0  0  0
   84.6990   96.1340  129.4780 C   0  0  0  0  0  0  0  0  0  0  0  0
   84.4320   95.3690  131.7680 C   0  0  0  0  0  0  0  0  0  0  0  0
   83.9800   96.1010  138.5980 N   0  0  0  0  0  0  0  0  0  0  0  0
   84.2130   95.8450  137.1780 C   0  0  2  0  0  0  0  0  0  0  0  0
   83.5790   94.5100  136.8320 C   0  0  0  0  0  0  0  0  0  0  0  0
   83.8310   93.5180  137.5120 O   0  0  0  0  0  0  0  0  0  0  0  0
   85.7000   95.8530  136.8340 C   0  0  0  0  0  0  0  0  0  0  0  0
   85.9660   95.8280  135.3510 C   0  0  0  0  0  0  0  0  0  0  0  0
   87.4340   95.7510  135.0670 C   0  0  0  0  0  0  0  0  0  0  0  0
   87.7130   95.2540  133.7320 N   0  0  0  0  0  0  0  0  0  0  0  0
   88.1560   96.0260  132.7520 C   0  0  0  0  0  0  0  0  0  0  0  0
   88.3600   97.3100  132.9690 N   0  0  0  0  0  0  0  0  0  0  0  0
   88.3920   95.5230  131.5600 N   0  0  0  0  0  0  0  0  0  0  0  0
   82.6390   91.7670  133.5110 N   0  0  0  0  0  0  0  0  0  0  0  0
   82.7290   91.3590  132.1200 C   0  0  2  0  0  0  0  0  0  0  0  0
   81.6050   90.3900  131.7970 C   0  0  0  0  0  0  0  0  0  0  0  0
   81.3610   89.4430  132.5540 O   0  0  0  0  0  0  0  0  0  0  0  0
   84.0560   90.6680  131.8280 C   0  0  0  0  0  0  0  0  0  0  0  0
   85.2960   91.5000  132.0200 C   0  0  0  0  0  0  0  0  0  0  0  0
   86.5520   90.7220  131.6930 C   0  0  0  0  0  0  0  0  0  0  0  0
   86.4540   89.4960  131.4980 O   0  0  0  0  0  0  0  0  0  0  0  0
   87.6370   91.3310  131.6290 O   0  0  0  0  0  0  0  0  0  0  0  0
  2  1  1  6
  3  2  1  0
  4  3  2  0
  5  2  1  0
  6  5  1  0
  7  5  1  0
  8  3  1  0
  9  8  1  0
 10  9  1  0
 11 10  2  0
  9 12  1  6
 13 12  1  0
 14 13  1  0
 15 14  1  0
 16 15  1  0
 18 17  1  1
 19 18  1  0
 20 19  2  0
 21 18  1  0
 22 21  1  0
 23 22  1  0
 24 23  2  0
 25 23  1  0
 26 19  1  0
 27 26  1  0
 28 27  1  0
 29 28  2  0
 27 30  1  6
 31 30  1  0
 32 31  1  0
 33 31  2  0
 34 32  2  0
 35 34  1  0
 35 33  1  0
 36 28  1  0
 37 36  1  1
 38 37  1  0
 39 38  2  0
 40 37  1  0
 41 40  1  0
 40 42  1  6
 43 41  1  0
 44 38  1  0
 45 44  1  0
 46 45  1  0
 47 46  2  0
 45 48  1  6
 49 48  1  0
 50 49  2  0
 51 49  1  0
 53 52  1  6
 54 53  1  0
 55 54  2  0
 56 53  1  0
 57 56  1  0
 58 57  1  0
 59 58  2  0
 60 58  1  0
 62 61  1  6
 63 62  1  0
 64 63  2  0
 65 62  1  0
 66 65  1  0
 67 66  1  0
 68 67  1  0
 69 63  1  0
 70 69  1  0
 71 70  1  0
 72 71  2  0
 70 73  1  1
 74 73  1  0
 75 74  1  0
 76 74  1  0
 77 71  1  0
 78 77  1  6
 79 78  1  0
 80 79  2  0
 81 78  1  0
 82 81  1  0
 83 81  1  0
 85 84  1  1
 86 85  1  0
 87 86  2  0
 88 85  1  0
 89 88  1  0
 90 89  1  0
 91 90  1  0
 92 91  1  0
 93 92  1  0
 94 92  2  0
 96 95  1  1
 97 96  1  0
 98 97  2  0
 99 96  1  0
100 99  1  0
101100  1  0
102101  2  0
103101  1  0
M  END
$$$$
