
     RDKit          3D

145143  0  0  0  0  0  0  0  0999 V2000
  233.0730  289.3290  204.4530 N   0  0  0  0  0  0  0  0  0  0  0  0
  231.9090  289.5850  203.6060 C   0  0  2  0  0  0  0  0  0  0  0  0
  231.3290  288.2480  203.1620 C   0  0  0  0  0  0  0  0  0  0  0  0
  231.7380  287.6680  202.1540 O   0  0  0  0  0  0  0  0  0  0  0  0
  232.2940  290.4530  202.4140 C   0  0  0  0  0  0  0  0  0  0  0  0
  231.0870  291.0030  201.6750 C   0  0  0  0  0  0  0  0  0  0  0  0
  229.9620  290.9100  202.2100 O   0  0  0  0  0  0  0  0  0  0  0  0
  231.2650  291.5300  200.5570 O   0  0  0  0  0  0  0  0  0  0  0  0
  230.3590  287.7520  203.9270 N   0  0  0  0  0  0  0  0  0  0  0  0
  229.6410  286.5300  203.5920 C   0  0  2  0  0  0  0  0  0  0  0  0
  228.3750  286.7910  202.7850 C   0  0  0  0  0  0  0  0  0  0  0  0
  227.5040  285.9180  202.7230 O   0  0  0  0  0  0  0  0  0  0  0  0
  229.2910  285.7540  204.8650 C   0  0  0  0  0  0  0  0  0  0  0  0
  230.4640  285.0370  205.4970 C   0  0  0  0  0  0  0  0  0  0  0  0
  231.2380  285.6540  206.4730 C   0  0  0  0  0  0  0  0  0  0  0  0
  230.7930  283.7390  205.1200 C   0  0  0  0  0  0  0  0  0  0  0  0
  232.3110  285.0000  207.0550 C   0  0  0  0  0  0  0  0  0  0  0  0
  231.8650  283.0760  205.6960 C   0  0  0  0  0  0  0  0  0  0  0  0
  232.6190  283.7120  206.6620 C   0  0  0  0  0  0  0  0  0  0  0  0
  233.6840  283.0580  207.2370 O   0  0  0  0  0  0  0  0  0  0  0  0
  228.2510  287.9700  202.1700 N   0  0  0  0  0  0  0  0  0  0  0  0
  227.0470  288.2900  201.4100 C   0  0  2  0  0  0  0  0  0  0  0  0
  227.1610  287.8450  199.9570 C   0  0  0  0  0  0  0  0  0  0  0  0
  226.1840  287.3570  199.3780 O   0  0  0  0  0  0  0  0  0  0  0  0
  226.7640  289.7910  201.4860 C   0  0  0  0  0  0  0  0  0  0  0  0
  227.8480  290.5410  200.9660 O   0  0  0  0  0  0  0  0  0  0  0  0
  228.3370  288.0020  199.3550 N   0  0  0  0  0  0  0  0  0  0  0  0
  228.5770  287.6310  197.9620 C   0  0  2  0  0  0  0  0  0  0  0  0
  229.8570  286.8030  197.9290 C   0  0  0  0  0  0  0  0  0  0  0  0
  230.9640  287.3540  197.9550 O   0  0  0  0  0  0  0  0  0  0  0  0
  228.6760  288.8500  197.0370 C   0  0  0  0  0  0  0  0  0  0  0  0
  227.3380  289.1070  196.3620 C   0  0  0  0  0  0  0  0  0  0  0  0
  229.1170  290.0870  197.8150 C   0  0  0  0  0  0  0  0  0  0  0  0
  229.7130  285.4790  197.8740 N   0  0  0  0  0  0  0  0  0  0  0  0
  230.8670  284.5880  197.8470 C   0  0  2  0  0  0  0  0  0  0  0  0
  230.7200  283.5190  196.7710 C   0  0  0  0  0  0  0  0  0  0  0  0
  229.8120  283.5860  195.9360 O   0  0  0  0  0  0  0  0  0  0  0  0
  231.0770  283.9360  199.2150 C   0  0  0  0  0  0  0  0  0  0  0  0
  231.6430  284.8190  200.3280 C   0  0  0  0  0  0  0  0  0  0  0  0
  231.8060  284.0220  201.6110 C   0  0  0  0  0  0  0  0  0  0  0  0
  232.9690  285.4330  199.9040 C   0  0  0  0  0  0  0  0  0  0  0  0
  231.6120  282.5310  196.7880 N   0  0  0  0  0  0  0  0  0  0  0  0
  231.6870  281.4940  195.7630 C   0  0  2  0  0  0  0  0  0  0  0  0
  231.1560  280.1840  196.3340 C   0  0  0  0  0  0  0  0  0  0  0  0
  231.8380  279.5240  197.1250 O   0  0  0  0  0  0  0  0  0  0  0  0
  233.1250  281.3320  195.2700 C   0  0  0  0  0  0  0  0  0  0  0  0
  234.1730  281.8950  196.2080 C   0  0  0  0  0  0  0  0  0  0  0  0
  234.5920  281.1810  197.3260 C   0  0  0  0  0  0  0  0  0  0  0  0
  234.7530  283.1370  195.9670 C   0  0  0  0  0  0  0  0  0  0  0  0
  235.5520  281.6910  198.1840 C   0  0  0  0  0  0  0  0  0  0  0  0
  235.7140  283.6560  196.8190 C   0  0  0  0  0  0  0  0  0  0  0  0
  236.1090  282.9280  197.9240 C   0  0  0  0  0  0  0  0  0  0  0  0
  237.0640  283.4390  198.7730 O   0  0  0  0  0  0  0  0  0  0  0  0
  229.9390  279.8080  195.9350 N   0  0  0  0  0  0  0  0  0  0  0  0
  229.3370  278.5540  196.3790 C   0  0  2  0  0  0  0  0  0  0  0  0
  229.0370  277.6080  195.2250 C   0  0  0  0  0  0  0  0  0  0  0  0
  229.4610  276.4480  195.2630 O   0  0  0  0  0  0  0  0  0  0  0  0
  228.0610  278.8360  197.1810 C   0  0  0  0  0  0  0  0  0  0  0  0
  227.1970  277.6010  197.3550 C   0  0  0  0  0  0  0  0  0  0  0  0
  227.5080  276.7190  198.1550 O   0  0  0  0  0  0  0  0  0  0  0  0
  226.1000  277.5370  196.6090 N   0  0  0  0  0  0  0  0  0  0  0  0
  228.3210  278.0630  194.1980 N   0  0  0  0  0  0  0  0  0  0  0  0
  227.8490  277.1790  193.1320 C   0  0  2  0  0  0  0  0  0  0  0  0
  228.8550  277.1230  191.9800 C   0  0  0  0  0  0  0  0  0  0  0  0
  228.5350  277.4220  190.8270 O   0  0  0  0  0  0  0  0  0  0  0  0
  226.4750  277.6280  192.6480 C   0  0  0  0  0  0  0  0  0  0  0  0
  225.5290  277.6040  193.7030 O   0  0  0  0  0  0  0  0  0  0  0  0
  237.4020  273.6420  193.7860 N   0  0  0  0  0  0  0  0  0  0  0  0
  236.3530  273.5430  194.8020 C   0  0  2  0  0  0  0  0  0  0  0  0
  236.7810  272.4710  195.8020 C   0  0  0  0  0  0  0  0  0  0  0  0
  236.4350  271.2960  195.6490 O   0  0  0  0  0  0  0  0  0  0  0  0
  235.0050  273.2220  194.1580 C   0  0  0  0  0  0  0  0  0  0  0  0
  233.8360  273.3590  195.0890 C   0  0  0  0  0  0  0  0  0  0  0  0
  233.2730  274.6020  195.3360 C   0  0  0  0  0  0  0  0  0  0  0  0
  233.2930  272.2440  195.7100 C   0  0  0  0  0  0  0  0  0  0  0  0
  232.1930  274.7330  196.1910 C   0  0  0  0  0  0  0  0  0  0  0  0
  232.2130  272.3660  196.5660 C   0  0  0  0  0  0  0  0  0  0  0  0
  231.6620  273.6130  196.8070 C   0  0  0  0  0  0  0  0  0  0  0  0
  237.5320  272.8780  196.8260 N   0  0  0  0  0  0  0  0  0  0  0  0
  238.0630  271.9550  197.8210 C   0  0  2  0  0  0  0  0  0  0  0  0
  238.0690  272.6130  199.1920 C   0  0  0  0  0  0  0  0  0  0  0  0
  238.4430  273.7810  199.3300 O   0  0  0  0  0  0  0  0  0  0  0  0
  239.4880  271.4990  197.4670 C   0  0  0  0  0  0  0  0  0  0  0  0
  239.5680  270.4070  196.4090 C   0  0  0  0  0  0  0  0  0  0  0  0
  238.8650  269.1410  196.8690 C   0  0  0  0  0  0  0  0  0  0  0  0
  238.9750  268.0380  195.8290 C   0  0  0  0  0  0  0  0  0  0  0  0
  238.3070  266.7850  196.2780 N   0  0  0  0  0  0  0  0  0  0  0  0
  237.6530  271.8510  200.2040 N   0  0  0  0  0  0  0  0  0  0  0  0
  237.6960  272.2800  201.5950 C   0  0  2  0  0  0  0  0  0  0  0  0
  238.1620  271.1090  202.4470 C   0  0  0  0  0  0  0  0  0  0  0  0
  237.7750  269.9640  202.2000 O   0  0  0  0  0  0  0  0  0  0  0  0
  236.3260  272.7690  202.0860 C   0  0  0  0  0  0  0  0  0  0  0  0
  235.6040  274.1410  201.1480 S   0  0  0  0  0  0  0  0  0  0  0  0
  232.6750  272.1430  205.9000 N   0  0  0  0  0  0  0  0  0  0  0  0
  233.0080  273.2700  205.0110 C   0  0  2  0  0  0  0  0  0  0  0  0
  232.1560  274.5150  205.2150 C   0  0  0  0  0  0  0  0  0  0  0  0
  232.5380  275.5830  204.7190 O   0  0  0  0  0  0  0  0  0  0  0  0
  232.7910  272.6860  203.6070 C   0  0  0  0  0  0  0  0  0  0  0  0
  232.7340  271.1970  203.7950 C   0  0  0  0  0  0  0  0  0  0  0  0
  232.1430  270.9950  205.1490 C   0  0  0  0  0  0  0  0  0  0  0  0
  231.0240  274.4230  205.9140 N   0  0  0  0  0  0  0  0  0  0  0  0
  230.1730  275.5830  206.1560 C   0  0  2  0  0  0  0  0  0  0  0  0
  230.1150  275.9540  207.6340 C   0  0  0  0  0  0  0  0  0  0  0  0
  229.2000  276.6680  208.0560 O   0  0  0  0  0  0  0  0  0  0  0  0
  228.7620  275.3420  205.6160 C   0  0  2  0  0  0  0  0  0  0  0  0
  228.2450  274.1160  206.1480 O   0  0  0  0  0  0  0  0  0  0  0  0
  228.7820  275.2680  204.0960 C   0  0  0  0  0  0  0  0  0  0  0  0
  231.7750  278.1240  209.4730 N   0  0  0  0  0  0  0  0  0  0  0  0
  232.6050  279.3190  209.5280 C   0  0  2  0  0  0  0  0  0  0  0  0
  231.9410  280.4990  210.2190 C   0  0  0  0  0  0  0  0  0  0  0  0
  232.6380  281.2870  210.8620 O   0  0  0  0  0  0  0  0  0  0  0  0
  233.0210  279.7480  208.1120 C   0  0  0  0  0  0  0  0  0  0  0  0
  233.8530  278.7440  207.3130 C   0  0  0  0  0  0  0  0  0  0  0  0
  234.1780  279.2940  205.9330 C   0  0  0  0  0  0  0  0  0  0  0  0
  235.1260  278.3850  208.0640 C   0  0  0  0  0  0  0  0  0  0  0  0
  230.6190  280.6470  210.1040 N   0  0  0  0  0  0  0  0  0  0  0  0
  229.9390  281.7670  210.7430 C   0  0  2  0  0  0  0  0  0  0  0  0
  229.7450  281.5440  212.2370 C   0  0  0  0  0  0  0  0  0  0  0  0
  229.7530  282.5100  213.0090 O   0  0  0  0  0  0  0  0  0  0  0  0
  228.5880  282.0140  210.0710 C   0  0  0  0  0  0  0  0  0  0  0  0
  228.7220  282.3490  208.5990 C   0  0  0  0  0  0  0  0  0  0  0  0
  229.7150  282.9380  208.1720 O   0  0  0  0  0  0  0  0  0  0  0  0
  227.7200  281.9720  207.8130 N   0  0  0  0  0  0  0  0  0  0  0  0
  239.0060  277.0920  203.0410 N   0  0  0  0  0  0  0  0  0  0  0  0
  238.9530  276.3650  201.7820 C   0  0  2  0  0  0  0  0  0  0  0  0
  240.0100  276.9110  200.8330 C   0  0  0  0  0  0  0  0  0  0  0  0
  240.5460  278.0050  201.0280 O   0  0  0  0  0  0  0  0  0  0  0  0
  237.5660  276.4660  201.1310 C   0  0  0  0  0  0  0  0  0  0  0  0
  236.1990  275.8200  202.1260 S   0  0  0  0  0  0  0  0  0  0  0  0
  240.5480  277.7230  196.7880 N   0  0  0  0  0  0  0  0  0  0  0  0
  239.8300  277.9440  195.5370 C   0  0  2  0  0  0  0  0  0  0  0  0
  240.6470  278.8960  194.6720 C   0  0  0  0  0  0  0  0  0  0  0  0
  241.0640  279.9640  195.1330 O   0  0  0  0  0  0  0  0  0  0  0  0
  238.4050  278.4830  195.7950 C   0  0  2  0  0  0  0  0  0  0  0  0
  237.7990  279.1040  194.5340 C   0  0  0  0  0  0  0  0  0  0  0  0
  238.3890  279.4620  196.9710 C   0  0  0  0  0  0  0  0  0  0  0  0
  236.3190  279.3860  194.6550 C   0  0  0  0  0  0  0  0  0  0  0  0
  242.0100  280.8180  202.4160 N   0  0  0  0  0  0  0  0  0  0  0  0
  241.2070  281.2910  203.5430 C   0  0  2  0  0  0  0  0  0  0  0  0
  241.8180  280.7400  204.8280 C   0  0  0  0  0  0  0  0  0  0  0  0
  241.3800  279.7330  205.3890 O   0  0  0  0  0  0  0  0  0  0  0  0
  239.7530  280.8690  203.3790 C   0  0  0  0  0  0  0  0  0  0  0  0
  239.0560  281.2970  202.0850 C   0  0  0  0  0  0  0  0  0  0  0  0
  237.6150  280.8110  202.0640 C   0  0  0  0  0  0  0  0  0  0  0  0
  239.1210  282.8060  201.9090 C   0  0  0  0  0  0  0  0  0  0  0  0
  2  1  1  1
  3  2  1  0
  4  3  2  0
  5  2  1  0
  6  5  1  0
  7  6  2  0
  8  6  1  0
  9  3  1  0
 10  9  1  0
 11 10  1  0
 12 11  2  0
 10 13  1  1
 14 13  1  0
 15 14  2  0
 16 14  1  0
 17 15  1  0
 18 16  2  0
 19 18  1  0
 19 17  2  0
 20 19  1  0
 21 11  1  0
 22 21  1  0
 23 22  1  0
 24 23  2  0
 22 25  1  6
 26 25  1  0
 27 23  1  0
 28 27  1  1
 29 28  1  0
 30 29  2  0
 31 28  1  0
 32 31  1  0
 33 31  1  0
 34 29  1  0
 35 34  1  0
 36 35  1  0
 37 36  2  0
 35 38  1  1
 39 38  1  0
 40 39  1  0
 41 39  1  0
 42 36  1  0
 43 42  1  0
 44 43  1  0
 45 44  2  0
 43 46  1  1
 47 46  1  0
 48 47  2  0
 49 47  1  0
 50 48  1  0
 51 49  2  0
 52 50  2  0
 52 51  1  0
 53 52  1  0
 54 44  1  0
 55 54  1  0
 56 55  1  0
 57 56  2  0
 55 58  1  6
 59 58  1  0
 60 59  2  0
 61 59  1  0
 62 56  1  0
 63 62  1  0
 64 63  1  0
 65 64  2  0
 63 66  1  6
 67 66  1  0
 69 68  1  6
 70 69  1  0
 71 70  2  0
 72 69  1  0
 73 72  1  0
 74 73  2  0
 75 73  1  0
 76 74  1  0
 77 75  2  0
 78 77  1  0
 78 76  2  0
 79 70  1  0
 80 79  1  0
 81 80  1  0
 82 81  2  0
 80 83  1  6
 84 83  1  0
 85 84  1  0
 86 85  1  0
 87 86  1  0
 88 81  1  0
 89 88  1  0
 90 89  1  0
 91 90  2  0
 89 92  1  1
 93 92  1  0
 95 94  1  0
 95 96  1  1
 97 96  2  0
 98 95  1  0
 99 98  1  0
100 99  1  0
100 94  1  0
101 96  1  0
102101  1  1
103102  1  0
104103  2  0
105102  1  0
106105  1  0
105107  1  6
109108  1  6
110109  1  0
111110  2  0
112109  1  0
113112  1  0
114113  1  0
115113  1  0
116110  1  0
117116  1  0
118117  1  0
119118  2  0
117120  1  6
121120  1  0
122121  2  0
123121  1  0
125124  1  1
126125  1  0
127126  2  0
128125  1  0
129128  1  0
129 93  1  0
131130  1  1
132131  1  0
133132  2  0
134131  1  0
135134  1  0
134136  1  1
137135  1  0
139138  1  6
140139  1  0
141140  2  0
142139  1  0
143142  1  0
144143  1  0
145143  1  0
M  END
$$$$
