
     RDKit          3D

106109  0  0  0  0  0  0  0  0999 V2000
  215.1430  211.8540  194.3230 N   0  0  0  0  0  0  0  0  0  0  0  0
  215.9950  211.1550  193.3700 C   0  0  2  0  0  0  0  0  0  0  0  0
  215.5130  209.7300  193.1170 C   0  0  0  0  0  0  0  0  0  0  0  0
  215.5710  209.2440  191.9830 O   0  0  0  0  0  0  0  0  0  0  0  0
  217.4430  211.1480  193.8740 C   0  0  0  0  0  0  0  0  0  0  0  0
  218.4370  210.5390  192.9100 C   0  0  0  0  0  0  0  0  0  0  0  0
  218.9020  211.2600  191.8150 C   0  0  0  0  0  0  0  0  0  0  0  0
  218.9210  209.2490  193.1020 C   0  0  0  0  0  0  0  0  0  0  0  0
  219.8150  210.7090  190.9320 C   0  0  0  0  0  0  0  0  0  0  0  0
  219.8330  208.6890  192.2240 C   0  0  0  0  0  0  0  0  0  0  0  0
  220.2770  209.4240  191.1420 C   0  0  0  0  0  0  0  0  0  0  0  0
  221.1840  208.8730  190.2670 O   0  0  0  0  0  0  0  0  0  0  0  0
  215.0350  209.0500  194.1600 N   0  0  0  0  0  0  0  0  0  0  0  0
  214.5670  207.6730  194.0610 C   0  0  2  0  0  0  0  0  0  0  0  0
  213.0540  207.5840  193.8930 C   0  0  0  0  0  0  0  0  0  0  0  0
  212.4380  206.6020  194.3230 O   0  0  0  0  0  0  0  0  0  0  0  0
  215.0140  206.8740  195.2850 C   0  0  0  0  0  0  0  0  0  0  0  0
  216.5220  206.7930  195.4090 C   0  0  0  0  0  0  0  0  0  0  0  0
  217.2390  206.7670  194.4090 O   0  0  0  0  0  0  0  0  0  0  0  0
  217.0130  206.7550  196.6430 N   0  0  0  0  0  0  0  0  0  0  0  0
  212.4390  208.5950  193.2770 N   0  0  0  0  0  0  0  0  0  0  0  0
  210.9980  208.5800  193.0600 C   0  0  2  0  0  0  0  0  0  0  0  0
  210.5820  207.6440  191.9340 C   0  0  0  0  0  0  0  0  0  0  0  0
  209.4320  207.1860  191.9330 O   0  0  0  0  0  0  0  0  0  0  0  0
  210.4960  209.9950  192.7630 C   0  0  0  0  0  0  0  0  0  0  0  0
  209.0970  210.0040  192.5390 O   0  0  0  0  0  0  0  0  0  0  0  0
  211.4920  207.3690  190.9880 N   0  0  0  0  0  0  0  0  0  0  0  0
  211.2820  206.4790  189.8350 C   0  0  2  0  0  0  0  0  0  0  0  0
  210.0930  206.9050  188.9750 C   0  0  0  0  0  0  0  0  0  0  0  0
  209.3810  206.0630  188.4200 O   0  0  0  0  0  0  0  0  0  0  0  0
  211.1370  205.0140  190.2670 C   0  0  0  0  0  0  0  0  0  0  0  0
  209.8680  208.2140  188.8580 N   0  0  0  0  0  0  0  0  0  0  0  0
  208.7840  208.7310  188.0370 C   0  0  2  0  0  0  0  0  0  0  0  0
  209.1830  209.9330  187.1940 C   0  0  0  0  0  0  0  0  0  0  0  0
  208.3460  210.4360  186.4380 O   0  0  0  0  0  0  0  0  0  0  0  0
  207.5780  209.1060  188.9150 C   0  0  0  0  0  0  0  0  0  0  0  0
  207.9260  210.1050  189.8590 O   0  0  0  0  0  0  0  0  0  0  0  0
  210.4210  210.4090  187.2940 N   0  0  0  0  0  0  0  0  0  0  0  0
  210.8860  211.5690  186.5460 C   0  0  2  0  0  0  0  0  0  0  0  0
  211.7110  211.0990  185.3540 C   0  0  0  0  0  0  0  0  0  0  0  0
  212.7590  210.4670  185.5300 O   0  0  0  0  0  0  0  0  0  0  0  0
  211.7080  212.4990  187.4380 C   0  0  0  0  0  0  0  0  0  0  0  0
  210.9160  213.1300  188.5480 C   0  0  0  0  0  0  0  0  0  0  0  0
  210.2070  214.3030  188.3300 C   0  0  0  0  0  0  0  0  0  0  0  0
  210.8820  212.5540  189.8100 C   0  0  0  0  0  0  0  0  0  0  0  0
  209.4770  214.8900  189.3500 C   0  0  0  0  0  0  0  0  0  0  0  0
  210.1540  213.1340  190.8350 C   0  0  0  0  0  0  0  0  0  0  0  0
  209.4510  214.3040  190.6040 C   0  0  0  0  0  0  0  0  0  0  0  0
  211.2380  211.4080  184.1470 N   0  0  0  0  0  0  0  0  0  0  0  0
  211.9460  211.0310  182.9300 C   0  0  2  0  0  0  0  0  0  0  0  0
  213.0790  211.9860  182.5800 C   0  0  0  0  0  0  0  0  0  0  0  0
  213.8640  211.6810  181.6760 O   0  0  0  0  0  0  0  0  0  0  0  0
  210.9660  210.9480  181.7560 C   0  0  0  0  0  0  0  0  0  0  0  0
  210.3440  212.1990  181.5220 O   0  0  0  0  0  0  0  0  0  0  0  0
  213.1840  213.1230  183.2640 N   0  0  0  0  0  0  0  0  0  0  0  0
  214.2440  214.0970  183.0140 C   0  0  2  0  0  0  0  0  0  0  0  0
  214.6370  214.7190  184.3460 C   0  0  0  0  0  0  0  0  0  0  0  0
  213.8600  215.4790  184.9320 O   0  0  0  0  0  0  0  0  0  0  0  0
  213.7950  215.1710  182.0210 C   0  0  2  0  0  0  0  0  0  0  0  0
  213.4990  214.5650  180.7560 O   0  0  0  0  0  0  0  0  0  0  0  0
  214.8860  216.2190  181.8340 C   0  0  0  0  0  0  0  0  0  0  0  0
  215.8380  214.3920  184.8250 N   0  0  0  0  0  0  0  0  0  0  0  0
  216.3590  214.9250  186.0880 C   0  0  2  0  0  0  0  0  0  0  0  0
  217.8230  215.2940  185.8530 C   0  0  0  0  0  0  0  0  0  0  0  0
  218.7180  214.4590  186.0040 O   0  0  0  0  0  0  0  0  0  0  0  0
  216.1990  213.9220  187.2230 C   0  0  0  0  0  0  0  0  0  0  0  0
  216.4820  214.4930  188.5830 C   0  0  0  0  0  0  0  0  0  0  0  0
  215.5060  215.2060  189.2650 C   0  0  0  0  0  0  0  0  0  0  0  0
  217.7200  214.3140  189.1830 C   0  0  0  0  0  0  0  0  0  0  0  0
  215.7610  215.7350  190.5200 C   0  0  0  0  0  0  0  0  0  0  0  0
  217.9820  214.8400  190.4380 C   0  0  0  0  0  0  0  0  0  0  0  0
  217.0000  215.5500  191.1060 C   0  0  0  0  0  0  0  0  0  0  0  0
  218.0560  216.5500  185.4830 N   0  0  0  0  0  0  0  0  0  0  0  0
  219.3890  217.0550  185.1980 C   0  0  2  0  0  0  0  0  0  0  0  0
  219.7370  218.1760  186.1680 C   0  0  0  0  0  0  0  0  0  0  0  0
  218.8540  218.8560  186.6980 O   0  0  0  0  0  0  0  0  0  0  0  0
  219.4950  217.5700  183.7560 C   0  0  0  0  0  0  0  0  0  0  0  0
  219.1440  216.5400  182.6940 C   0  0  0  0  0  0  0  0  0  0  0  0
  220.1160  215.3730  182.7090 C   0  0  0  0  0  0  0  0  0  0  0  0
  219.7930  214.3750  181.6100 C   0  0  0  0  0  0  0  0  0  0  0  0
  220.7280  213.2180  181.6130 N   0  0  0  0  0  0  0  0  0  0  0  0
  221.0360  218.3570  186.3970 N   0  0  0  0  0  0  0  0  0  0  0  0
  221.5440  219.4310  187.2380 C   0  0  2  0  0  0  0  0  0  0  0  0
  222.8390  219.9590  186.6430 C   0  0  0  0  0  0  0  0  0  0  0  0
  223.6620  219.1870  186.1440 O   0  0  0  0  0  0  0  0  0  0  0  0
  221.7860  218.9620  188.6780 C   0  0  0  0  0  0  0  0  0  0  0  0
  220.2980  218.7560  189.6860 S   0  0  0  0  0  0  0  0  0  0  0  0
  223.0140  221.2760  186.6990 N   0  0  0  0  0  0  0  0  0  0  0  0
  224.1950  221.9370  186.1670 C   0  0  2  0  0  0  0  0  0  0  0  0
  224.9370  222.6600  187.2830 C   0  0  0  0  0  0  0  0  0  0  0  0
  224.4070  222.8730  188.3770 O   0  0  0  0  0  0  0  0  0  0  0  0
  223.8260  222.9320  185.0570 C   0  0  0  0  0  0  0  0  0  0  0  0
  223.2490  222.2920  183.8130 C   0  0  0  0  0  0  0  0  0  0  0  0
  223.6330  221.0130  183.4230 C   0  0  0  0  0  0  0  0  0  0  0  0
  222.3210  222.9680  183.0290 C   0  0  0  0  0  0  0  0  0  0  0  0
  223.1070  220.4240  182.2850 C   0  0  0  0  0  0  0  0  0  0  0  0
  221.7890  222.3890  181.8890 C   0  0  0  0  0  0  0  0  0  0  0  0
  222.1860  221.1170  181.5230 C   0  0  0  0  0  0  0  0  0  0  0  0
  221.6610  220.5370  180.3920 O   0  0  0  0  0  0  0  0  0  0  0  0
  225.1190  217.0680  192.7040 N   0  0  0  0  0  0  0  0  0  0  0  0
  224.0500  216.9320  193.7080 C   0  0  2  0  0  0  0  0  0  0  0  0
  224.5100  216.3090  195.0150 C   0  0  0  0  0  0  0  0  0  0  0  0
  223.8250  216.4750  196.0320 O   0  0  0  0  0  0  0  0  0  0  0  0
  223.0140  216.0450  193.0020 C   0  0  0  0  0  0  0  0  0  0  0  0
  223.7940  215.3010  191.9760 C   0  0  0  0  0  0  0  0  0  0  0  0
  224.8490  216.2570  191.5040 C   0  0  0  0  0  0  0  0  0  0  0  0
  2  1  1  1
  3  2  1  0
  4  3  2  0
  5  2  1  0
  6  5  1  0
  7  6  2  0
  8  6  1  0
  9  7  1  0
 10  8  2  0
 11 10  1  0
 11  9  2  0
 12 11  1  0
 13  3  1  0
 14 13  1  0
 15 14  1  0
 16 15  2  0
 14 17  1  1
 18 17  1  0
 19 18  2  0
 20 18  1  0
 21 15  1  0
 22 21  1  0
 23 22  1  0
 24 23  2  0
 22 25  1  6
 26 25  1  0
 27 23  1  0
 28 27  1  0
 29 28  1  0
 30 29  2  0
 28 31  1  1
 32 29  1  0
 33 32  1  0
 34 33  1  0
 35 34  2  0
 33 36  1  1
 37 36  1  0
 38 34  1  0
 39 38  1  0
 40 39  1  0
 41 40  2  0
 39 42  1  1
 43 42  1  0
 44 43  2  0
 45 43  1  0
 46 44  1  0
 47 45  2  0
 48 46  2  0
 48 47  1  0
 49 40  1  0
 50 49  1  0
 51 50  1  0
 52 51  2  0
 50 53  1  6
 54 53  1  0
 55 51  1  0
 56 55  1  1
 57 56  1  0
 58 57  2  0
 59 56  1  0
 60 59  1  0
 59 61  1  6
 62 57  1  0
 63 62  1  0
 64 63  1  0
 65 64  2  0
 63 66  1  1
 67 66  1  0
 68 67  2  0
 69 67  1  0
 70 68  1  0
 71 69  2  0
 72 71  1  0
 72 70  2  0
 73 64  1  0
 74 73  1  0
 75 74  1  0
 76 75  2  0
 74 77  1  6
 78 77  1  0
 79 78  1  0
 80 79  1  0
 81 80  1  0
 82 75  1  0
 83 82  1  0
 84 83  1  0
 85 84  2  0
 83 86  1  1
 87 86  1  0
 88 84  1  0
 89 88  1  0
 90 89  1  0
 91 90  2  0
 89 92  1  6
 93 92  1  0
 94 93  2  0
 95 93  1  0
 96 94  1  0
 97 95  2  0
 98 97  1  0
 98 96  2  0
 99 98  1  0
101100  1  0
101102  1  1
103102  2  0
104101  1  0
105104  1  0
106105  1  0
106100  1  0
M  END
$$$$
