
     RDKit          3D

131127  0  0  0  0  0  0  0  0999 V2000
  -95.2120  -32.8610  202.8320 N   0  0  0  0  0  0  0  0  0  0  0  0
  -94.5280  -31.8260  202.0850 C   0  0  0  0  0  0  0  0  0  0  0  0
  -95.4200  -30.8280  201.3810 C   0  0  0  0  0  0  0  0  0  0  0  0
  -94.9000  -29.8950  200.7550 O   0  0  0  0  0  0  0  0  0  0  0  0
  -96.7400  -30.9890  201.4540 N   0  0  0  0  0  0  0  0  0  0  0  0
  -97.6810  -30.0790  200.8070 C   0  0  2  0  0  0  0  0  0  0  0  0
  -98.8530  -29.8600  201.7480 C   0  0  0  0  0  0  0  0  0  0  0  0
  -99.5150  -30.8220  202.1480 O   0  0  0  0  0  0  0  0  0  0  0  0
  -98.1720  -30.6330  199.4630 C   0  0  0  0  0  0  0  0  0  0  0  0
  -97.0750  -30.9230  198.4500 C   0  0  0  0  0  0  0  0  0  0  0  0
  -97.6160  -31.4920  197.1520 C   0  0  0  0  0  0  0  0  0  0  0  0
  -98.8550  -31.5730  197.0070 O   0  0  0  0  0  0  0  0  0  0  0  0
  -96.8040  -31.8580  196.2770 O   0  0  0  0  0  0  0  0  0  0  0  0
  -98.9850  -24.6680  200.1960 N   0  0  0  0  0  0  0  0  0  0  0  0
  -97.8540  -24.3290  201.0470 C   0  0  2  0  0  0  0  0  0  0  0  0
  -98.3710  -23.6080  202.2830 C   0  0  0  0  0  0  0  0  0  0  0  0
  -99.4050  -22.9330  202.2400 O   0  0  0  0  0  0  0  0  0  0  0  0
  -96.8080  -23.4660  200.3180 C   0  0  0  0  0  0  0  0  0  0  0  0
  -97.2250  -22.0300  200.0500 C   0  0  0  0  0  0  0  0  0  0  0  0
  -96.0380  -21.1360  199.7360 C   0  0  0  0  0  0  0  0  0  0  0  0
  -94.9090  -21.6600  199.6290 O   0  0  0  0  0  0  0  0  0  0  0  0
  -96.2300  -19.9090  199.6010 O   0  0  0  0  0  0  0  0  0  0  0  0
  -96.5290  -21.4130  205.3220 N   0  0  0  0  0  0  0  0  0  0  0  0
  -95.3950  -20.7890  205.9970 C   0  0  2  0  0  0  0  0  0  0  0  0
  -95.8080  -19.3790  206.3950 C   0  0  0  0  0  0  0  0  0  0  0  0
  -96.9580  -18.9760  206.1790 O   0  0  0  0  0  0  0  0  0  0  0  0
  -94.1580  -20.7480  205.0830 C   0  0  2  0  0  0  0  0  0  0  0  0
  -94.5840  -20.3630  203.6710 C   0  0  0  0  0  0  0  0  0  0  0  0
  -93.4240  -22.0750  205.0780 C   0  0  0  0  0  0  0  0  0  0  0  0
  -93.4570  -20.3330  202.6880 C   0  0  0  0  0  0  0  0  0  0  0  0
  -94.8800  -18.6200  206.9760 N   0  0  0  0  0  0  0  0  0  0  0  0
  -95.0330  -17.1730  207.0490 C   0  0  2  0  0  0  0  0  0  0  0  0
  -94.5340  -16.6350  205.7120 C   0  0  0  0  0  0  0  0  0  0  0  0
  -93.3330  -16.4620  205.5090 O   0  0  0  0  0  0  0  0  0  0  0  0
  -94.2760  -16.5680  208.2320 C   0  0  2  0  0  0  0  0  0  0  0  0
  -94.8830  -17.0250  209.5600 C   0  0  0  0  0  0  0  0  0  0  0  0
  -94.3070  -15.0430  208.1560 C   0  0  0  0  0  0  0  0  0  0  0  0
  -94.2370  -18.2690  210.1390 C   0  0  0  0  0  0  0  0  0  0  0  0
  -95.4600  -16.3790  204.7900 N   0  0  0  0  0  0  0  0  0  0  0  0
  -95.1160  -16.0940  203.4030 C   0  0  2  0  0  0  0  0  0  0  0  0
  -94.6710  -14.6560  203.1720 C   0  0  0  0  0  0  0  0  0  0  0  0
  -94.5010  -14.2600  202.0140 O   0  0  0  0  0  0  0  0  0  0  0  0
  -96.3040  -16.4200  202.4920 C   0  0  0  0  0  0  0  0  0  0  0  0
  -94.4820  -13.8690  204.2260 N   0  0  0  0  0  0  0  0  0  0  0  0
  -94.1100  -12.4680  204.0860 C   0  0  2  0  0  0  0  0  0  0  0  0
  -92.7860  -12.2190  204.7950 C   0  0  0  0  0  0  0  0  0  0  0  0
  -92.7090  -12.3870  206.0250 O   0  0  0  0  0  0  0  0  0  0  0  0
  -95.2040  -11.5600  204.6530 C   0  0  0  0  0  0  0  0  0  0  0  0
  -95.0890  -10.1310  204.1630 C   0  0  0  0  0  0  0  0  0  0  0  0
  -94.0070   -9.6690  203.8010 O   0  0  0  0  0  0  0  0  0  0  0  0
  -96.2120   -9.4220  204.1440 N   0  0  0  0  0  0  0  0  0  0  0  0
  -91.7260  -11.8320  204.0820 N   0  0  0  0  0  0  0  0  0  0  0  0
  -90.4520  -11.5490  204.7640 C   0  0  2  0  0  0  0  0  0  0  0  0
  -90.5310  -10.3600  205.7040 C   0  0  0  0  0  0  0  0  0  0  0  0
  -89.8520  -10.3500  206.7400 O   0  0  0  0  0  0  0  0  0  0  0  0
  -89.4810  -11.2910  203.6010 C   0  0  0  0  0  0  0  0  0  0  0  0
  -90.1240  -11.9370  202.4090 C   0  0  0  0  0  0  0  0  0  0  0  0
  -91.5970  -11.7740  202.6170 C   0  0  0  0  0  0  0  0  0  0  0  0
  -91.7960  -11.5710  208.8170 N   0  0  0  0  0  0  0  0  0  0  0  0
  -90.7200  -12.3270  209.4550 C   0  0  2  0  0  0  0  0  0  0  0  0
  -89.8180  -11.3910  210.2490 C   0  0  0  0  0  0  0  0  0  0  0  0
  -89.4780  -11.6580  211.4080 O   0  0  0  0  0  0  0  0  0  0  0  0
  -89.9220  -13.1220  208.4060 C   0  0  0  0  0  0  0  0  0  0  0  0
  -88.6280  -13.6450  209.0080 C   0  0  0  0  0  0  0  0  0  0  0  0
  -90.7560  -14.2670  207.8580 C   0  0  0  0  0  0  0  0  0  0  0  0
  -82.4580  -17.4620  209.7210 N   0  0  0  0  0  0  0  0  0  0  0  0
  -83.3780  -16.4690  209.1720 C   0  0  2  0  0  0  0  0  0  0  0  0
  -82.6370  -15.1930  208.7830 C   0  0  0  0  0  0  0  0  0  0  0  0
  -82.8350  -14.6510  207.6860 O   0  0  0  0  0  0  0  0  0  0  0  0
  -84.4850  -16.1670  210.1810 C   0  0  0  0  0  0  0  0  0  0  0  0
  -85.7560  -16.9130  209.9230 C   0  0  0  0  0  0  0  0  0  0  0  0
  -86.7710  -16.4060  209.1410 N   0  0  0  0  0  0  0  0  0  0  0  0
  -86.1730  -18.1330  210.3360 C   0  0  0  0  0  0  0  0  0  0  0  0
  -87.7610  -17.2780  209.0890 C   0  0  0  0  0  0  0  0  0  0  0  0
  -87.4240  -18.3350  209.8050 N   0  0  0  0  0  0  0  0  0  0  0  0
  -80.6270  -15.8100  205.7030 N   0  0  0  0  0  0  0  0  0  0  0  0
  -81.4620  -15.8280  204.5070 C   0  0  2  0  0  0  0  0  0  0  0  0
  -81.8560  -14.4160  204.0900 C   0  0  0  0  0  0  0  0  0  0  0  0
  -81.9230  -14.1090  202.8930 O   0  0  0  0  0  0  0  0  0  0  0  0
  -82.7010  -16.6910  204.7640 C   0  0  0  0  0  0  0  0  0  0  0  0
  -83.4590  -17.0360  203.4930 C   0  0  0  0  0  0  0  0  0  0  0  0
  -83.7050  -16.1810  202.6450 O   0  0  0  0  0  0  0  0  0  0  0  0
  -83.8370  -18.3020  203.3620 N   0  0  0  0  0  0  0  0  0  0  0  0
  -82.1060  -13.5380  205.0600 N   0  0  0  0  0  0  0  0  0  0  0  0
  -82.5620  -12.1870  204.7380 C   0  0  2  0  0  0  0  0  0  0  0  0
  -81.4040  -11.3110  204.2670 C   0  0  0  0  0  0  0  0  0  0  0  0
  -81.4160  -10.7910  203.1450 O   0  0  0  0  0  0  0  0  0  0  0  0
  -83.2820  -11.5570  205.9440 C   0  0  2  0  0  0  0  0  0  0  0  0
  -84.5820  -12.3040  206.2370 C   0  0  0  0  0  0  0  0  0  0  0  0
  -83.5640  -10.0850  205.6860 C   0  0  0  0  0  0  0  0  0  0  0  0
  -85.6020  -12.1750  205.1310 C   0  0  0  0  0  0  0  0  0  0  0  0
  -78.4170  -15.8960  201.1090 N   0  0  0  0  0  0  0  0  0  0  0  0
  -77.9160  -17.2600  201.2110 C   0  0  2  0  0  0  0  0  0  0  0  0
  -78.9580  -18.2440  200.6950 C   0  0  0  0  0  0  0  0  0  0  0  0
  -80.1120  -18.2280  201.1330 O   0  0  0  0  0  0  0  0  0  0  0  0
  -77.5660  -17.5860  202.6640 C   0  0  0  0  0  0  0  0  0  0  0  0
  -76.0100  -16.9010  203.3040 S   0  0  0  0  0  0  0  0  0  0  0  0
  -80.2650  -21.0600  201.3560 N   0  0  0  0  0  0  0  0  0  0  0  0
  -80.3120  -21.9700  202.5020 C   0  0  2  0  0  0  0  0  0  0  0  0
  -81.2230  -23.1470  202.1620 C   0  0  0  0  0  0  0  0  0  0  0  0
  -82.3670  -22.9290  201.7340 O   0  0  0  0  0  0  0  0  0  0  0  0
  -80.8050  -21.2380  203.7460 C   0  0  2  0  0  0  0  0  0  0  0  0
  -79.8060  -20.1560  204.1620 C   0  0  0  0  0  0  0  0  0  0  0  0
  -81.0380  -22.2170  204.8870 C   0  0  0  0  0  0  0  0  0  0  0  0
  -78.4510  -20.6950  204.5630 C   0  0  0  0  0  0  0  0  0  0  0  0
  -80.7630  -24.3890  202.3310 N   0  0  0  0  0  0  0  0  0  0  0  0
  -81.6300  -25.5290  202.0520 C   0  0  2  0  0  0  0  0  0  0  0  0
  -82.7300  -25.6390  203.0970 C   0  0  0  0  0  0  0  0  0  0  0  0
  -82.5360  -25.2540  204.2620 O   0  0  0  0  0  0  0  0  0  0  0  0
  -80.6710  -26.7300  202.1180 C   0  0  0  0  0  0  0  0  0  0  0  0
  -79.5720  -26.2750  203.0150 C   0  0  0  0  0  0  0  0  0  0  0  0
  -79.4120  -24.8040  202.7510 C   0  0  0  0  0  0  0  0  0  0  0  0
  -83.9040  -26.1530  202.7200 N   0  0  0  0  0  0  0  0  0  0  0  0
  -84.9840  -26.3090  203.7090 C   0  0  2  0  0  0  0  0  0  0  0  0
  -84.6840  -27.3340  204.7910 C   0  0  0  0  0  0  0  0  0  0  0  0
  -85.3380  -27.3040  205.8430 O   0  0  0  0  0  0  0  0  0  0  0  0
  -86.1840  -26.7430  202.8560 C   0  0  0  0  0  0  0  0  0  0  0  0
  -85.8550  -26.2890  201.4680 C   0  0  0  0  0  0  0  0  0  0  0  0
  -84.3660  -26.4140  201.3480 C   0  0  0  0  0  0  0  0  0  0  0  0
  -83.7360  -25.5230  207.7710 N   0  0  0  0  0  0  0  0  0  0  0  0
  -84.9080  -24.8820  208.3570 C   0  0  2  0  0  0  0  0  0  0  0  0
  -85.6890  -25.8580  209.2260 C   0  0  0  0  0  0  0  0  0  0  0  0
  -86.0340  -25.5480  210.3710 O   0  0  0  0  0  0  0  0  0  0  0  0
  -85.7990  -24.3110  207.2540 C   0  0  0  0  0  0  0  0  0  0  0  0
  -85.6770  -22.8150  207.0810 C   0  0  0  0  0  0  0  0  0  0  0  0
  -86.3550  -21.9420  207.9210 C   0  0  0  0  0  0  0  0  0  0  0  0
  -84.8830  -22.2750  206.0770 C   0  0  0  0  0  0  0  0  0  0  0  0
  -86.2460  -20.5730  207.7670 C   0  0  0  0  0  0  0  0  0  0  0  0
  -84.7680  -20.9080  205.9150 C   0  0  0  0  0  0  0  0  0  0  0  0
  -85.4510  -20.0620  206.7630 C   0  0  0  0  0  0  0  0  0  0  0  0
  -85.3400  -18.6990  206.6050 O   0  0  0  0  0  0  0  0  0  0  0  0
  2  1  1  0
  3  2  1  0
  4  3  2  0
  5  3  1  0
  6  5  1  0
  7  6  1  0
  8  7  2  0
  6  9  1  6
 10  9  1  0
 11 10  1  0
 12 11  2  0
 13 11  1  0
 15 14  1  6
 16 15  1  0
 17 16  2  0
 18 15  1  0
 19 18  1  0
 20 19  1  0
 21 20  2  0
 22 20  1  0
 24 23  1  6
 25 24  1  0
 26 25  2  0
 27 24  1  0
 28 27  1  0
 27 29  1  6
 30 28  1  0
 31 25  1  0
 32 31  1  6
 33 32  1  0
 34 33  2  0
 35 32  1  0
 36 35  1  0
 35 37  1  6
 38 36  1  0
 39 33  1  0
 40 39  1  0
 41 40  1  0
 42 41  2  0
 40 43  1  6
 44 41  1  0
 45 44  1  0
 46 45  1  0
 47 46  2  0
 45 48  1  1
 49 48  1  0
 50 49  2  0
 51 49  1  0
 52 46  1  0
 53 52  1  0
 53 54  1  1
 55 54  2  0
 56 53  1  0
 57 56  1  0
 58 57  1  0
 58 52  1  0
 60 59  1  6
 61 60  1  0
 62 61  2  0
 63 60  1  0
 64 63  1  0
 65 63  1  0
 67 66  1  1
 68 67  1  0
 69 68  2  0
 70 67  1  0
 71 70  1  0
 72 71  1  0
 73 71  2  0
 74 72  2  0
 75 74  1  0
 75 73  1  0
 77 76  1  1
 78 77  1  0
 79 78  2  0
 80 77  1  0
 81 80  1  0
 82 81  2  0
 83 81  1  0
 84 78  1  0
 85 84  1  1
 86 85  1  0
 87 86  2  0
 88 85  1  0
 89 88  1  0
 88 90  1  6
 91 89  1  0
 93 92  1  1
 94 93  1  0
 95 94  2  0
 96 93  1  0
 97 96  1  0
 99 98  1  6
100 99  1  0
101100  2  0
102 99  1  0
103102  1  0
102104  1  1
105103  1  0
106100  1  0
107106  1  0
107108  1  1
109108  2  0
110107  1  0
111110  1  0
112111  1  0
112106  1  0
113108  1  0
114113  1  0
114115  1  1
116115  2  0
117114  1  0
118117  1  0
119118  1  0
119113  1  0
121120  1  6
122121  1  0
123122  2  0
124121  1  0
125124  1  0
126125  2  0
127125  1  0
128126  1  0
129127  2  0
130129  1  0
130128  2  0
131130  1  0
M  END
$$$$
