
     RDKit          3D

122118  0  0  0  0  0  0  0  0999 V2000
  178.6620  224.0240  224.4150 N   0  0  0  0  0  0  0  0  0  0  0  0
  178.0050  223.3400  225.5170 C   0  0  2  0  0  0  0  0  0  0  0  0
  177.4170  222.0170  225.0540 C   0  0  0  0  0  0  0  0  0  0  0  0
  176.7950  221.9430  223.9910 O   0  0  0  0  0  0  0  0  0  0  0  0
  176.8830  224.1870  226.0960 C   0  0  0  0  0  0  0  0  0  0  0  0
  177.2820  225.5610  226.5540 C   0  0  0  0  0  0  0  0  0  0  0  0
  176.0370  226.3990  226.6820 C   0  0  0  0  0  0  0  0  0  0  0  0
  176.0560  227.2510  227.8590 N   0  0  0  0  0  0  0  0  0  0  0  0
  176.0840  228.5750  227.8070 C   0  0  0  0  0  0  0  0  0  0  0  0
  176.0940  229.1860  226.6330 N   0  0  0  0  0  0  0  0  0  0  0  0
  176.0950  229.2840  228.9230 N   0  0  0  0  0  0  0  0  0  0  0  0
  177.5980  220.9820  225.8640 N   0  0  0  0  0  0  0  0  0  0  0  0
  176.8820  219.7290  225.6930 C   0  0  2  0  0  0  0  0  0  0  0  0
  175.9180  219.5230  226.8450 C   0  0  0  0  0  0  0  0  0  0  0  0
  176.1660  219.9560  227.9710 O   0  0  0  0  0  0  0  0  0  0  0  0
  177.8120  218.5230  225.6100 C   0  0  0  0  0  0  0  0  0  0  0  0
  178.5890  218.4410  224.3430 C   0  0  0  0  0  0  0  0  0  0  0  0
  178.2500  219.2190  223.2600 C   0  0  0  0  0  0  0  0  0  0  0  0
  179.6220  217.5430  224.2160 C   0  0  0  0  0  0  0  0  0  0  0  0
  178.9520  219.1290  222.0890 C   0  0  0  0  0  0  0  0  0  0  0  0
  180.3240  217.4490  223.0470 C   0  0  0  0  0  0  0  0  0  0  0  0
  179.9890  218.2430  221.9820 C   0  0  0  0  0  0  0  0  0  0  0  0
  174.8190  218.8490  226.5470 N   0  0  0  0  0  0  0  0  0  0  0  0
  173.8230  218.5700  227.5600 C   0  0  2  0  0  0  0  0  0  0  0  0
  174.3130  217.4760  228.4970 C   0  0  0  0  0  0  0  0  0  0  0  0
  175.2010  216.6910  228.1670 O   0  0  0  0  0  0  0  0  0  0  0  0
  172.5060  218.1570  226.9120 C   0  0  0  0  0  0  0  0  0  0  0  0
  173.7180  217.4350  229.6820 N   0  0  0  0  0  0  0  0  0  0  0  0
  174.0700  216.4090  230.6480 C   0  0  2  0  0  0  0  0  0  0  0  0
  173.6260  215.0440  230.1470 C   0  0  0  0  0  0  0  0  0  0  0  0
  172.7430  214.9280  229.2940 O   0  0  0  0  0  0  0  0  0  0  0  0
  173.4340  216.7150  231.9970 C   0  0  0  0  0  0  0  0  0  0  0  0
  172.0270  216.6300  231.9140 O   0  0  0  0  0  0  0  0  0  0  0  0
  171.9440  212.5160  231.1990 N   0  0  0  0  0  0  0  0  0  0  0  0
  170.5950  211.9810  231.3190 C   0  0  2  0  0  0  0  0  0  0  0  0
  169.6190  212.5900  230.3240 C   0  0  0  0  0  0  0  0  0  0  0  0
  168.4820  212.1190  230.2390 O   0  0  0  0  0  0  0  0  0  0  0  0
  170.0710  212.1730  232.7390 C   0  0  0  0  0  0  0  0  0  0  0  0
  169.4640  213.5240  233.0200 C   0  0  0  0  0  0  0  0  0  0  0  0
  168.1070  213.7410  232.8540 C   0  0  0  0  0  0  0  0  0  0  0  0
  170.2390  214.5690  233.4860 C   0  0  0  0  0  0  0  0  0  0  0  0
  167.5460  214.9600  233.1200 C   0  0  0  0  0  0  0  0  0  0  0  0
  169.6840  215.7940  233.7570 C   0  0  0  0  0  0  0  0  0  0  0  0
  168.3360  215.9830  233.5730 C   0  0  0  0  0  0  0  0  0  0  0  0
  167.7670  217.2050  233.8380 O   0  0  0  0  0  0  0  0  0  0  0  0
  170.0200  213.6210  229.5870 N   0  0  0  0  0  0  0  0  0  0  0  0
  169.1870  214.2240  228.5520 C   0  0  2  0  0  0  0  0  0  0  0  0
  170.0170  214.4390  227.2960 C   0  0  0  0  0  0  0  0  0  0  0  0
  170.0210  215.5140  226.6990 O   0  0  0  0  0  0  0  0  0  0  0  0
  168.5710  215.5340  229.0290 C   0  0  0  0  0  0  0  0  0  0  0  0
  170.7450  213.4010  226.9040 N   0  0  0  0  0  0  0  0  0  0  0  0
  171.6480  213.4560  225.7630 C   0  0  2  0  0  0  0  0  0  0  0  0
  170.9850  214.0390  224.5200 C   0  0  0  0  0  0  0  0  0  0  0  0
  169.8420  213.7140  224.1930 O   0  0  0  0  0  0  0  0  0  0  0  0
  172.1650  212.0470  225.4870 C   0  0  0  0  0  0  0  0  0  0  0  0
  171.0740  211.0310  225.4760 C   0  0  0  0  0  0  0  0  0  0  0  0
  170.5940  210.3510  226.5490 C   0  0  0  0  0  0  0  0  0  0  0  0
  170.3330  210.5700  224.3470 C   0  0  0  0  0  0  0  0  0  0  0  0
  169.5930  209.5020  226.1650 N   0  0  0  0  0  0  0  0  0  0  0  0
  169.4160  209.6160  224.8140 C   0  0  0  0  0  0  0  0  0  0  0  0
  170.3530  210.8730  222.9880 C   0  0  0  0  0  0  0  0  0  0  0  0
  168.5280  208.9630  223.9730 C   0  0  0  0  0  0  0  0  0  0  0  0
  169.4710  210.2230  222.1540 C   0  0  0  0  0  0  0  0  0  0  0  0
  168.5710  209.2800  222.6470 C   0  0  0  0  0  0  0  0  0  0  0  0
  171.7160  214.9170  223.8360 N   0  0  0  0  0  0  0  0  0  0  0  0
  171.2260  215.5160  222.6000 C   0  0  2  0  0  0  0  0  0  0  0  0
  171.1370  214.4830  221.4900 C   0  0  0  0  0  0  0  0  0  0  0  0
  172.0470  213.6710  221.3120 O   0  0  0  0  0  0  0  0  0  0  0  0
  172.1570  216.6350  222.1450 C   0  0  0  0  0  0  0  0  0  0  0  0
  171.9670  217.9000  222.9160 C   0  0  0  0  0  0  0  0  0  0  0  0
  170.8470  218.3510  223.1090 O   0  0  0  0  0  0  0  0  0  0  0  0
  173.0640  218.4890  223.3660 N   0  0  0  0  0  0  0  0  0  0  0  0
  176.6880  221.6840  236.8370 N   0  0  0  0  0  0  0  0  0  0  0  0
  175.6750  221.6670  235.7950 C   0  0  2  0  0  0  0  0  0  0  0  0
  175.3790  220.2600  235.2940 C   0  0  0  0  0  0  0  0  0  0  0  0
  174.2230  219.9310  235.0210 O   0  0  0  0  0  0  0  0  0  0  0  0
  176.1050  222.5510  234.6290 C   0  0  0  0  0  0  0  0  0  0  0  0
  175.2090  222.3870  233.4290 C   0  0  0  0  0  0  0  0  0  0  0  0
  173.9890  222.3290  233.5620 O   0  0  0  0  0  0  0  0  0  0  0  0
  175.8040  222.3070  232.2460 N   0  0  0  0  0  0  0  0  0  0  0  0
  174.5850  216.4110  235.1880 N   0  0  0  0  0  0  0  0  0  0  0  0
  173.7970  215.5900  236.0910 C   0  0  2  0  0  0  0  0  0  0  0  0
  173.5660  214.2240  235.4680 C   0  0  0  0  0  0  0  0  0  0  0  0
  173.4480  214.0910  234.2500 O   0  0  0  0  0  0  0  0  0  0  0  0
  172.4480  216.2460  236.3920 C   0  0  0  0  0  0  0  0  0  0  0  0
  172.4900  217.7040  236.8390 C   0  0  0  0  0  0  0  0  0  0  0  0
  171.0870  218.2460  237.0060 C   0  0  0  0  0  0  0  0  0  0  0  0
  173.2680  217.8410  238.1260 C   0  0  0  0  0  0  0  0  0  0  0  0
  165.1560  207.8260  226.2400 N   0  0  0  0  0  0  0  0  0  0  0  0
  165.4330  209.1560  226.7690 C   0  0  2  0  0  0  0  0  0  0  0  0
  164.3450  209.5030  227.7730 C   0  0  0  0  0  0  0  0  0  0  0  0
  163.2090  209.7930  227.3850 O   0  0  0  0  0  0  0  0  0  0  0  0
  165.4850  210.1840  225.6430 C   0  0  0  0  0  0  0  0  0  0  0  0
  166.5290  211.2560  225.8230 C   0  0  0  0  0  0  0  0  0  0  0  0
  166.4910  212.2380  224.6650 C   0  0  0  0  0  0  0  0  0  0  0  0
  165.4220  213.2130  224.8290 N   0  0  0  0  0  0  0  0  0  0  0  0
  165.3570  214.0950  225.8190 C   0  0  0  0  0  0  0  0  0  0  0  0
  166.3170  214.1550  226.7310 N   0  0  0  0  0  0  0  0  0  0  0  0
  164.3350  214.9340  225.8850 N   0  0  0  0  0  0  0  0  0  0  0  0
  163.4500  211.9690  231.0940 N   0  0  0  0  0  0  0  0  0  0  0  0
  163.8470  213.1860  231.7890 C   0  0  2  0  0  0  0  0  0  0  0  0
  162.9770  213.4940  232.9920 C   0  0  0  0  0  0  0  0  0  0  0  0
  163.3370  214.3790  233.7800 O   0  0  0  0  0  0  0  0  0  0  0  0
  163.8560  214.3940  230.8370 C   0  0  2  0  0  0  0  0  0  0  0  0
  162.4500  214.6270  230.3020 C   0  0  0  0  0  0  0  0  0  0  0  0
  164.8080  214.1470  229.7040 C   0  0  0  0  0  0  0  0  0  0  0  0
  162.2970  215.9140  229.5460 C   0  0  0  0  0  0  0  0  0  0  0  0
  161.6170  213.4950  236.6340 N   0  0  0  0  0  0  0  0  0  0  0  0
  162.4370  213.3960  237.8360 C   0  0  2  0  0  0  0  0  0  0  0  0
  161.5760  213.3110  239.0850 C   0  0  0  0  0  0  0  0  0  0  0  0
  161.7940  214.0230  240.0660 O   0  0  0  0  0  0  0  0  0  0  0  0
  163.3890  214.5770  237.9500 C   0  0  2  0  0  0  0  0  0  0  0  0
  162.6310  215.7870  238.0310 O   0  0  0  0  0  0  0  0  0  0  0  0
  164.2940  214.6380  236.7460 C   0  0  0  0  0  0  0  0  0  0  0  0
  168.5400  212.4130  240.4890 N   0  0  0  0  0  0  0  0  0  0  0  0
  169.6670  212.9550  239.7460 C   0  0  2  0  0  0  0  0  0  0  0  0
  170.7830  213.3410  240.7030 C   0  0  0  0  0  0  0  0  0  0  0  0
  170.5270  213.7760  241.8290 O   0  0  0  0  0  0  0  0  0  0  0  0
  169.2580  214.1630  238.9160 C   0  0  0  0  0  0  0  0  0  0  0  0
  168.0360  213.9710  238.0260 C   0  0  0  0  0  0  0  0  0  0  0  0
  167.8100  215.2080  237.1890 C   0  0  0  0  0  0  0  0  0  0  0  0
  168.2020  212.7540  237.1450 C   0  0  0  0  0  0  0  0  0  0  0  0
  2  1  1  6
  3  2  1  0
  4  3  2  0
  5  2  1  0
  6  5  1  0
  7  6  1  0
  8  7  1  0
  9  8  1  0
 10  9  1  0
 11  9  2  0
 12  3  1  0
 13 12  1  0
 14 13  1  0
 15 14  2  0
 13 16  1  1
 17 16  1  0
 18 17  2  0
 19 17  1  0
 20 18  1  0
 21 19  2  0
 22 20  2  0
 22 21  1  0
 23 14  1  0
 24 23  1  0
 25 24  1  0
 26 25  2  0
 24 27  1  6
 28 25  1  0
 29 28  1  0
 30 29  1  0
 31 30  2  0
 29 32  1  1
 33 32  1  0
 35 34  1  1
 36 35  1  0
 37 36  2  0
 38 35  1  0
 39 38  1  0
 40 39  2  0
 41 39  1  0
 42 40  1  0
 43 41  2  0
 44 42  2  0
 44 43  1  0
 45 44  1  0
 46 36  1  0
 47 46  1  0
 48 47  1  0
 49 48  2  0
 47 50  1  1
 51 48  1  0
 52 51  1  0
 53 52  1  0
 54 53  2  0
 52 55  1  6
 56 55  1  0
 57 56  2  0
 58 56  1  0
 59 57  1  0
 60 59  1  0
 60 58  2  0
 61 58  1  0
 62 60  1  0
 63 61  2  0
 64 62  2  0
 64 63  1  0
 65 53  1  0
 66 65  1  0
 67 66  1  0
 68 67  2  0
 66 69  1  6
 70 69  1  0
 71 70  2  0
 72 70  1  0
 74 73  1  1
 75 74  1  0
 76 75  2  0
 77 74  1  0
 78 77  1  0
 79 78  2  0
 80 78  1  0
 82 81  1  6
 83 82  1  0
 84 83  2  0
 85 82  1  0
 86 85  1  0
 87 86  1  0
 88 86  1  0
 90 89  1  6
 91 90  1  0
 92 91  2  0
 93 90  1  0
 94 93  1  0
 95 94  1  0
 96 95  1  0
 97 96  1  0
 98 97  1  0
 99 97  2  0
101100  1  6
102101  1  0
103102  2  0
104101  1  0
105104  1  0
104106  1  6
107105  1  0
109108  1  6
110109  1  0
111110  2  0
112109  1  0
113112  1  0
112114  1  6
116115  1  1
117116  1  0
118117  2  0
119116  1  0
120119  1  0
121120  1  0
122120  1  0
M  END
$$$$
