
     RDKit          3D

116114  0  0  0  0  0  0  0  0999 V2000
  210.5340  146.1760  224.7690 N   0  0  0  0  0  0  0  0  0  0  0  0
  210.0290  145.0980  225.6010 C   0  0  2  0  0  0  0  0  0  0  0  0
  208.6490  144.6610  225.1270 C   0  0  0  0  0  0  0  0  0  0  0  0
  207.9040  145.4360  224.5260 O   0  0  0  0  0  0  0  0  0  0  0  0
  209.9690  145.5390  227.0590 C   0  0  0  0  0  0  0  0  0  0  0  0
  209.9420  144.3930  228.0380 C   0  0  0  0  0  0  0  0  0  0  0  0
  210.4600  144.8430  229.3820 C   0  0  0  0  0  0  0  0  0  0  0  0
  209.5060  145.7180  230.0450 N   0  0  0  0  0  0  0  0  0  0  0  0
  209.8450  146.7050  230.8620 C   0  0  0  0  0  0  0  0  0  0  0  0
  211.1220  146.9540  231.1090 N   0  0  0  0  0  0  0  0  0  0  0  0
  208.9050  147.4480  231.4210 N   0  0  0  0  0  0  0  0  0  0  0  0
  223.0670  136.6010  231.0650 N   0  0  0  0  0  0  0  0  0  0  0  0
  222.6840  137.3280  232.2590 C   0  0  0  0  0  0  0  0  0  0  0  0
  221.8600  138.5630  231.9630 C   0  0  0  0  0  0  0  0  0  0  0  0
  221.7060  139.4370  232.8220 O   0  0  0  0  0  0  0  0  0  0  0  0
  222.9180  144.3230  228.5470 N   0  0  0  0  0  0  0  0  0  0  0  0
  222.7940  145.7170  228.9420 C   0  0  2  0  0  0  0  0  0  0  0  0
  223.1390  146.6590  227.8000 C   0  0  0  0  0  0  0  0  0  0  0  0
  223.4670  147.8260  228.0380 O   0  0  0  0  0  0  0  0  0  0  0  0
  223.6800  145.9900  230.1540 C   0  0  0  0  0  0  0  0  0  0  0  0
  223.2750  145.1770  231.3580 C   0  0  0  0  0  0  0  0  0  0  0  0
  222.2900  145.6260  232.2240 C   0  0  0  0  0  0  0  0  0  0  0  0
  223.8570  143.9410  231.6100 C   0  0  0  0  0  0  0  0  0  0  0  0
  221.9100  144.8780  233.3190 C   0  0  0  0  0  0  0  0  0  0  0  0
  223.4830  143.1860  232.6990 C   0  0  0  0  0  0  0  0  0  0  0  0
  222.5090  143.6590  233.5500 C   0  0  0  0  0  0  0  0  0  0  0  0
  222.1300  142.9110  234.6390 O   0  0  0  0  0  0  0  0  0  0  0  0
  218.2840  154.1860  230.9260 N   0  0  0  0  0  0  0  0  0  0  0  0
  218.2260  153.0090  231.7750 C   0  0  2  0  0  0  0  0  0  0  0  0
  218.0500  151.7800  230.8980 C   0  0  0  0  0  0  0  0  0  0  0  0
  217.3780  151.8300  229.8660 O   0  0  0  0  0  0  0  0  0  0  0  0
  217.1000  153.1230  232.8010 C   0  0  0  0  0  0  0  0  0  0  0  0
  217.1110  152.0270  233.8340 C   0  0  0  0  0  0  0  0  0  0  0  0
  216.3810  150.7950  233.3640 C   0  0  0  0  0  0  0  0  0  0  0  0
  215.4460  150.8830  232.5710 O   0  0  0  0  0  0  0  0  0  0  0  0
  216.8270  149.6310  233.8200 N   0  0  0  0  0  0  0  0  0  0  0  0
  218.6570  150.6760  231.3220 N   0  0  0  0  0  0  0  0  0  0  0  0
  218.8640  149.5190  230.4640 C   0  0  2  0  0  0  0  0  0  0  0  0
  217.7060  148.5250  230.5300 C   0  0  0  0  0  0  0  0  0  0  0  0
  216.6530  148.7790  231.1170 O   0  0  0  0  0  0  0  0  0  0  0  0
  220.1700  148.8240  230.8320 C   0  0  0  0  0  0  0  0  0  0  0  0
  220.3300  147.6330  230.0840 O   0  0  0  0  0  0  0  0  0  0  0  0
  217.9250  147.3650  229.9160 N   0  0  0  0  0  0  0  0  0  0  0  0
  217.0260  146.2180  229.9160 C   0  0  2  0  0  0  0  0  0  0  0  0
  217.7350  144.9770  230.4290 C   0  0  0  0  0  0  0  0  0  0  0  0
  218.8410  144.6600  229.9890 O   0  0  0  0  0  0  0  0  0  0  0  0
  216.4750  145.9530  228.5110 C   0  0  0  0  0  0  0  0  0  0  0  0
  215.4960  146.9770  228.0010 C   0  0  0  0  0  0  0  0  0  0  0  0
  214.9000  147.8630  228.8650 C   0  0  0  0  0  0  0  0  0  0  0  0
  215.2200  147.1030  226.6490 C   0  0  0  0  0  0  0  0  0  0  0  0
  213.9970  148.7730  228.4160 C   0  0  0  0  0  0  0  0  0  0  0  0
  214.3260  148.0400  226.1900 C   0  0  0  0  0  0  0  0  0  0  0  0
  213.7250  148.8820  227.0820 C   0  0  0  0  0  0  0  0  0  0  0  0
  212.8320  149.8310  226.6510 O   0  0  0  0  0  0  0  0  0  0  0  0
  217.0940  144.2860  231.3610 N   0  0  0  0  0  0  0  0  0  0  0  0
  217.5490  142.9840  231.7930 C   0  0  0  0  0  0  0  0  0  0  0  0
  216.9190  141.8520  231.0060 C   0  0  0  0  0  0  0  0  0  0  0  0
  215.9960  141.1950  231.4950 O   0  0  0  0  0  0  0  0  0  0  0  0
  217.3870  141.6200  229.7800 N   0  0  0  0  0  0  0  0  0  0  0  0
  216.8290  140.5600  228.9390 C   0  0  2  0  0  0  0  0  0  0  0  0
  217.4930  139.2220  229.2560 C   0  0  0  0  0  0  0  0  0  0  0  0
  218.3030  138.6850  228.4990 O   0  0  0  0  0  0  0  0  0  0  0  0
  216.9640  140.9120  227.4690 C   0  0  0  0  0  0  0  0  0  0  0  0
  216.0890  142.0390  227.0450 C   0  0  0  0  0  0  0  0  0  0  0  0
  214.8250  142.1720  227.5790 C   0  0  0  0  0  0  0  0  0  0  0  0
  216.5220  142.9620  226.1190 C   0  0  0  0  0  0  0  0  0  0  0  0
  214.0100  143.1980  227.1940 C   0  0  0  0  0  0  0  0  0  0  0  0
  215.7110  143.9920  225.7380 C   0  0  0  0  0  0  0  0  0  0  0  0
  214.4480  144.1030  226.2710 C   0  0  0  0  0  0  0  0  0  0  0  0
  217.1230  138.6790  230.4080 N   0  0  0  0  0  0  0  0  0  0  0  0
  217.5220  137.3270  230.7370 C   0  0  2  0  0  0  0  0  0  0  0  0
  216.8230  136.3490  229.7950 C   0  0  0  0  0  0  0  0  0  0  0  0
  215.6960  136.5960  229.3590 O   0  0  0  0  0  0  0  0  0  0  0  0
  217.1670  137.0090  232.1840 C   0  0  0  0  0  0  0  0  0  0  0  0
  217.6280  138.0720  233.1580 C   0  0  0  0  0  0  0  0  0  0  0  0
  219.0780  137.9100  233.5430 C   0  0  0  0  0  0  0  0  0  0  0  0
  219.6750  136.8580  233.3210 O   0  0  0  0  0  0  0  0  0  0  0  0
  219.6560  138.9550  234.1220 N   0  0  0  0  0  0  0  0  0  0  0  0
  215.3950  133.7710  230.3400 N   0  0  0  0  0  0  0  0  0  0  0  0
  214.3670  133.0500  231.0650 C   0  0  2  0  0  0  0  0  0  0  0  0
  213.1370  133.9020  231.3340 C   0  0  0  0  0  0  0  0  0  0  0  0
  212.1300  133.3740  231.8170 O   0  0  0  0  0  0  0  0  0  0  0  0
  214.9350  132.5340  232.3980 C   0  0  2  0  0  0  0  0  0  0  0  0
  216.2250  131.9580  232.1650 O   0  0  0  0  0  0  0  0  0  0  0  0
  214.0450  131.4580  233.0030 C   0  0  0  0  0  0  0  0  0  0  0  0
  213.1800  135.1870  231.0000 N   0  0  0  0  0  0  0  0  0  0  0  0
  212.1690  136.1360  231.4280 C   0  0  2  0  0  0  0  0  0  0  0  0
  210.7970  135.7620  230.8750 C   0  0  0  0  0  0  0  0  0  0  0  0
  210.6610  134.9670  229.9440 O   0  0  0  0  0  0  0  0  0  0  0  0
  212.5460  137.5380  230.9640 C   0  0  0  0  0  0  0  0  0  0  0  0
  213.8200  138.0310  231.6020 C   0  0  0  0  0  0  0  0  0  0  0  0
  214.6520  138.6570  230.9500 O   0  0  0  0  0  0  0  0  0  0  0  0
  213.9880  137.7380  232.8820 N   0  0  0  0  0  0  0  0  0  0  0  0
  209.7660  136.3490  231.4760 N   0  0  0  0  0  0  0  0  0  0  0  0
  208.4370  136.2310  230.9110 C   0  0  0  0  0  0  0  0  0  0  0  0
  208.3720  136.8590  229.5340 C   0  0  0  0  0  0  0  0  0  0  0  0
  209.0840  137.8170  229.2320 O   0  0  0  0  0  0  0  0  0  0  0  0
  207.5090  136.2990  228.6840 N   0  0  0  0  0  0  0  0  0  0  0  0
  207.4540  136.7370  227.2930 C   0  0  2  0  0  0  0  0  0  0  0  0
  207.1500  138.2210  227.2020 C   0  0  0  0  0  0  0  0  0  0  0  0
  207.5950  138.8960  226.2680 O   0  0  0  0  0  0  0  0  0  0  0  0
  206.4260  135.9050  226.5110 C   0  0  0  0  0  0  0  0  0  0  0  0
  206.9610  134.5060  226.2830 C   0  0  0  0  0  0  0  0  0  0  0  0
  205.1060  135.8650  227.2570 C   0  0  0  0  0  0  0  0  0  0  0  0
  208.5190  140.3070  228.9580 N   0  0  0  0  0  0  0  0  0  0  0  0
  209.7850  140.9550  229.2470 C   0  0  2  0  0  0  0  0  0  0  0  0
  210.8900  140.5800  228.2750 C   0  0  0  0  0  0  0  0  0  0  0  0
  211.9560  141.1990  228.3140 O   0  0  0  0  0  0  0  0  0  0  0  0
  210.2330  140.6250  230.6760 C   0  0  0  0  0  0  0  0  0  0  0  0
  209.4890  141.4090  231.7260 C   0  0  0  0  0  0  0  0  0  0  0  0
  208.1100  141.3310  231.8310 C   0  0  0  0  0  0  0  0  0  0  0  0
  210.1640  142.2390  232.6050 C   0  0  0  0  0  0  0  0  0  0  0  0
  207.4270  142.0510  232.7830 C   0  0  0  0  0  0  0  0  0  0  0  0
  209.4880  142.9620  233.5600 C   0  0  0  0  0  0  0  0  0  0  0  0
  208.1220  142.8650  233.6450 C   0  0  0  0  0  0  0  0  0  0  0  0
  207.4500  143.5890  234.5980 O   0  0  0  0  0  0  0  0  0  0  0  0
  2  1  1  6
  3  2  1  0
  4  3  2  0
  5  2  1  0
  6  5  1  0
  7  6  1  0
  8  7  1  0
  9  8  1  0
 10  9  1  0
 11  9  2  0
 13 12  1  0
 14 13  1  0
 15 14  2  0
 17 16  1  6
 18 17  1  0
 19 18  2  0
 20 17  1  0
 21 20  1  0
 22 21  2  0
 23 21  1  0
 24 22  1  0
 25 23  2  0
 26 24  2  0
 26 25  1  0
 27 26  1  0
 29 28  1  6
 30 29  1  0
 31 30  2  0
 32 29  1  0
 33 32  1  0
 34 33  1  0
 35 34  2  0
 36 34  1  0
 37 30  1  0
 38 37  1  0
 39 38  1  0
 40 39  2  0
 38 41  1  1
 42 41  1  0
 43 39  1  0
 44 43  1  0
 45 44  1  0
 46 45  2  0
 44 47  1  6
 48 47  1  0
 49 48  2  0
 50 48  1  0
 51 49  1  0
 52 50  2  0
 53 52  1  0
 53 51  2  0
 54 53  1  0
 55 45  1  0
 56 55  1  0
 57 56  1  0
 58 57  2  0
 59 57  1  0
 60 59  1  0
 61 60  1  0
 62 61  2  0
 60 63  1  6
 64 63  1  0
 65 64  2  0
 66 64  1  0
 67 65  1  0
 68 66  2  0
 69 68  1  0
 69 67  2  0
 70 61  1  0
 71 70  1  0
 72 71  1  0
 73 72  2  0
 71 74  1  1
 75 74  1  0
 76 75  1  0
 77 76  2  0
 78 76  1  0
 80 79  1  1
 81 80  1  0
 82 81  2  0
 83 80  1  0
 84 83  1  0
 83 85  1  6
 86 81  1  0
 87 86  1  0
 88 87  1  0
 89 88  2  0
 87 90  1  6
 91 90  1  0
 92 91  2  0
 93 91  1  0
 94 88  1  0
 95 94  1  0
 96 95  1  0
 97 96  2  0
 98 96  1  0
 99 98  1  1
100 99  1  0
101100  2  0
102 99  1  0
103102  1  0
104102  1  0
106105  1  6
107106  1  0
108107  2  0
109106  1  0
110109  1  0
111110  2  0
112110  1  0
113111  1  0
114112  2  0
115114  1  0
115113  2  0
116115  1  0
M  END
$$$$
