
     RDKit          3D

145144  0  0  0  0  0  0  0  0999 V2000
  206.3560  155.1330  228.5750 N   0  0  0  0  0  0  0  0  0  0  0  0
  207.7720  155.4670  228.4500 C   0  0  2  0  0  0  0  0  0  0  0  0
  208.1720  155.5820  226.9910 C   0  0  0  0  0  0  0  0  0  0  0  0
  208.7450  156.5900  226.5650 O   0  0  0  0  0  0  0  0  0  0  0  0
  208.6380  154.4100  229.1330 C   0  0  0  0  0  0  0  0  0  0  0  0
  208.3400  154.1430  230.5860 C   0  0  0  0  0  0  0  0  0  0  0  0
  207.7540  155.3420  231.2850 C   0  0  0  0  0  0  0  0  0  0  0  0
  207.5100  155.0060  232.7240 C   0  0  0  0  0  0  0  0  0  0  0  0
  208.7450  154.4650  233.3450 N   0  0  0  0  0  0  0  0  0  0  0  0
  208.8640  159.3420  225.6420 N   0  0  0  0  0  0  0  0  0  0  0  0
  210.2470  159.7810  225.7340 C   0  0  2  0  0  0  0  0  0  0  0  0
  211.1930  158.9750  224.8610 C   0  0  0  0  0  0  0  0  0  0  0  0
  212.4090  159.1570  224.9640 O   0  0  0  0  0  0  0  0  0  0  0  0
  210.7240  159.7310  227.1850 C   0  0  0  0  0  0  0  0  0  0  0  0
  209.7380  160.2990  228.1710 C   0  0  0  0  0  0  0  0  0  0  0  0
  209.0050  161.4350  227.8750 C   0  0  0  0  0  0  0  0  0  0  0  0
  209.5480  159.7050  229.4040 C   0  0  0  0  0  0  0  0  0  0  0  0
  208.1060  161.9530  228.7720 C   0  0  0  0  0  0  0  0  0  0  0  0
  208.6520  160.2210  230.3090 C   0  0  0  0  0  0  0  0  0  0  0  0
  207.9340  161.3430  229.9870 C   0  0  0  0  0  0  0  0  0  0  0  0
  207.0380  161.8610  230.8880 O   0  0  0  0  0  0  0  0  0  0  0  0
  215.3080  156.3230  227.3840 N   0  0  0  0  0  0  0  0  0  0  0  0
  215.3290  157.5530  228.1680 C   0  0  2  0  0  0  0  0  0  0  0  0
  214.2160  157.4650  229.1970 C   0  0  0  0  0  0  0  0  0  0  0  0
  213.0550  157.7750  228.9280 O   0  0  0  0  0  0  0  0  0  0  0  0
  215.1730  158.7760  227.2760 C   0  0  0  0  0  0  0  0  0  0  0  0
  215.1450  160.0870  228.0430 C   0  0  0  0  0  0  0  0  0  0  0  0
  215.2670  161.2830  227.1220 C   0  0  0  0  0  0  0  0  0  0  0  0
  216.1160  161.0110  225.9660 N   0  0  0  0  0  0  0  0  0  0  0  0
  217.4310  160.8190  226.0190 C   0  0  0  0  0  0  0  0  0  0  0  0
  218.0700  160.8710  227.1780 N   0  0  0  0  0  0  0  0  0  0  0  0
  218.1090  160.5770  224.9070 N   0  0  0  0  0  0  0  0  0  0  0  0
  214.5820  157.0330  230.3990 N   0  0  0  0  0  0  0  0  0  0  0  0
  213.6090  156.9190  231.4730 C   0  0  2  0  0  0  0  0  0  0  0  0
  213.2110  158.2810  232.0160 C   0  0  0  0  0  0  0  0  0  0  0  0
  212.0710  158.4600  232.4560 O   0  0  0  0  0  0  0  0  0  0  0  0
  214.1820  156.0480  232.5880 C   0  0  0  0  0  0  0  0  0  0  0  0
  213.2100  155.3960  233.5640 C   0  0  0  0  0  0  0  0  0  0  0  0
  213.8440  154.1400  234.1210 C   0  0  0  0  0  0  0  0  0  0  0  0
  212.8310  156.3330  234.6870 C   0  0  0  0  0  0  0  0  0  0  0  0
  214.1220  159.2470  231.9870 N   0  0  0  0  0  0  0  0  0  0  0  0
  213.9080  160.5510  232.5940 C   0  0  2  0  0  0  0  0  0  0  0  0
  213.9570  161.6330  231.5300 C   0  0  0  0  0  0  0  0  0  0  0  0
  214.9380  161.7330  230.7870 O   0  0  0  0  0  0  0  0  0  0  0  0
  214.9580  160.8200  233.6670 C   0  0  0  0  0  0  0  0  0  0  0  0
  214.7340  160.0470  234.9260 C   0  0  0  0  0  0  0  0  0  0  0  0
  213.7640  160.4370  235.8240 C   0  0  0  0  0  0  0  0  0  0  0  0
  215.4870  158.9250  235.2070 C   0  0  0  0  0  0  0  0  0  0  0  0
  213.5510  159.7310  236.9750 C   0  0  0  0  0  0  0  0  0  0  0  0
  215.2790  158.2160  236.3600 C   0  0  0  0  0  0  0  0  0  0  0  0
  214.3090  158.6180  237.2440 C   0  0  0  0  0  0  0  0  0  0  0  0
  212.9070  162.4460  231.4710 N   0  0  0  0  0  0  0  0  0  0  0  0
  212.8350  163.5460  230.5230 C   0  0  2  0  0  0  0  0  0  0  0  0
  211.7330  164.4870  230.9770 C   0  0  0  0  0  0  0  0  0  0  0  0
  210.6780  164.0360  231.4240 O   0  0  0  0  0  0  0  0  0  0  0  0
  212.5650  163.0460  229.1020 C   0  0  0  0  0  0  0  0  0  0  0  0
  212.2860  164.1430  228.1060 C   0  0  0  0  0  0  0  0  0  0  0  0
  212.7750  163.7490  226.7350 C   0  0  0  0  0  0  0  0  0  0  0  0
  213.1760  164.9100  225.9550 N   0  0  0  0  0  0  0  0  0  0  0  0
  212.3310  165.6830  225.2860 C   0  0  0  0  0  0  0  0  0  0  0  0
  211.0350  165.4130  225.2940 N   0  0  0  0  0  0  0  0  0  0  0  0
  212.7840  166.7210  224.6000 N   0  0  0  0  0  0  0  0  0  0  0  0
  211.9840  165.7910  230.8590 N   0  0  0  0  0  0  0  0  0  0  0  0
  211.0480  166.7770  231.3880 C   0  0  2  0  0  0  0  0  0  0  0  0
  209.7330  166.7580  230.6220 C   0  0  0  0  0  0  0  0  0  0  0  0
  208.6730  166.4670  231.1880 O   0  0  0  0  0  0  0  0  0  0  0  0
  211.6790  168.1680  231.3450 C   0  0  0  0  0  0  0  0  0  0  0  0
  211.1050  169.1380  232.3620 C   0  0  0  0  0  0  0  0  0  0  0  0
  211.8730  169.0830  233.6730 C   0  0  0  0  0  0  0  0  0  0  0  0
  213.2780  169.6380  233.5160 C   0  0  0  0  0  0  0  0  0  0  0  0
  214.0470  169.5720  234.7890 N   0  0  0  0  0  0  0  0  0  0  0  0
  219.7950  164.0340  234.2860 N   0  0  0  0  0  0  0  0  0  0  0  0
  218.4880  164.6540  234.4470 C   0  0  2  0  0  0  0  0  0  0  0  0
  218.5200  165.7190  235.5340 C   0  0  0  0  0  0  0  0  0  0  0  0
  219.3150  165.6620  236.4730 O   0  0  0  0  0  0  0  0  0  0  0  0
  217.4390  163.5960  234.7820 C   0  0  0  0  0  0  0  0  0  0  0  0
  216.0260  164.1190  234.7700 C   0  0  0  0  0  0  0  0  0  0  0  0
  215.3380  164.2810  233.5810 C   0  0  0  0  0  0  0  0  0  0  0  0
  215.3790  164.4440  235.9490 C   0  0  0  0  0  0  0  0  0  0  0  0
  214.0490  164.7580  233.5660 C   0  0  0  0  0  0  0  0  0  0  0  0
  214.0880  164.9200  235.9430 C   0  0  0  0  0  0  0  0  0  0  0  0
  213.4290  165.0740  234.7500 C   0  0  0  0  0  0  0  0  0  0  0  0
  212.1430  165.5480  234.7410 O   0  0  0  0  0  0  0  0  0  0  0  0
  217.6480  166.7130  235.3850 N   0  0  0  0  0  0  0  0  0  0  0  0
  217.5070  167.7890  236.3600 C   0  0  2  0  0  0  0  0  0  0  0  0
  216.2230  167.5460  237.1450 C   0  0  0  0  0  0  0  0  0  0  0  0
  215.1510  168.0490  236.8140 O   0  0  0  0  0  0  0  0  0  0  0  0
  217.4970  169.1410  235.6600 C   0  0  0  0  0  0  0  0  0  0  0  0
  217.4250  170.3300  236.6000 C   0  0  0  0  0  0  0  0  0  0  0  0
  218.6210  170.4170  237.5210 C   0  0  0  0  0  0  0  0  0  0  0  0
  218.5290  170.0990  238.7060 O   0  0  0  0  0  0  0  0  0  0  0  0
  219.7530  170.8570  236.9820 N   0  0  0  0  0  0  0  0  0  0  0  0
  216.3410  166.7520  238.2060 N   0  0  0  0  0  0  0  0  0  0  0  0
  215.1820  166.3870  239.0170 C   0  0  2  0  0  0  0  0  0  0  0  0
  215.0630  167.3720  240.1700 C   0  0  0  0  0  0  0  0  0  0  0  0
  215.6880  167.2150  241.2190 O   0  0  0  0  0  0  0  0  0  0  0  0
  215.2950  164.9510  239.5110 C   0  0  0  0  0  0  0  0  0  0  0  0
  214.2520  168.3990  239.9710 N   0  0  0  0  0  0  0  0  0  0  0  0
  213.9070  169.3310  241.0180 C   0  0  0  0  0  0  0  0  0  0  0  0
  214.6540  170.6460  240.9330 C   0  0  0  0  0  0  0  0  0  0  0  0
  215.2040  171.0270  239.8970 O   0  0  0  0  0  0  0  0  0  0  0  0
  214.6720  171.3490  242.0660 N   0  0  0  0  0  0  0  0  0  0  0  0
  215.1570  172.7230  242.1070 C   0  0  2  0  0  0  0  0  0  0  0  0
  216.6780  172.8240  242.0660 C   0  0  0  0  0  0  0  0  0  0  0  0
  217.2090  173.8320  241.5860 O   0  0  0  0  0  0  0  0  0  0  0  0
  214.6240  173.4190  243.3590 C   0  0  0  0  0  0  0  0  0  0  0  0
  215.0810  172.7730  244.5350 O   0  0  0  0  0  0  0  0  0  0  0  0
  217.3970  171.8080  242.5510 N   0  0  0  0  0  0  0  0  0  0  0  0
  218.8340  172.0130  242.6450 C   0  0  2  0  0  0  0  0  0  0  0  0
  219.5990  171.2130  241.5950 C   0  0  0  0  0  0  0  0  0  0  0  0
  219.3240  170.0260  241.3860 O   0  0  0  0  0  0  0  0  0  0  0  0
  219.3540  171.6530  244.0430 C   0  0  2  0  0  0  0  0  0  0  0  0
  220.7430  171.9910  244.1430 O   0  0  0  0  0  0  0  0  0  0  0  0
  219.1400  170.1800  244.3640 C   0  0  0  0  0  0  0  0  0  0  0  0
  221.7810  161.9590  243.7860 N   0  0  0  0  0  0  0  0  0  0  0  0
  220.4110  162.2300  244.1950 C   0  0  2  0  0  0  0  0  0  0  0  0
  219.8420  163.4320  243.4540 C   0  0  0  0  0  0  0  0  0  0  0  0
  220.5410  164.4150  243.1980 O   0  0  0  0  0  0  0  0  0  0  0  0
  220.3600  162.4690  245.7020 C   0  0  0  0  0  0  0  0  0  0  0  0
  218.9730  162.5440  246.2530 C   0  0  0  0  0  0  0  0  0  0  0  0
  218.0540  161.5490  245.9820 C   0  0  0  0  0  0  0  0  0  0  0  0
  218.5870  163.6090  247.0450 C   0  0  0  0  0  0  0  0  0  0  0  0
  216.7740  161.6170  246.4880 C   0  0  0  0  0  0  0  0  0  0  0  0
  217.3080  163.6810  247.5550 C   0  0  0  0  0  0  0  0  0  0  0  0
  216.4000  162.6840  247.2760 C   0  0  0  0  0  0  0  0  0  0  0  0
  218.5660  163.3300  243.0830 N   0  0  0  0  0  0  0  0  0  0  0  0
  217.8210  164.3830  242.3960 C   0  0  2  0  0  0  0  0  0  0  0  0
  218.4440  164.7750  241.0640 C   0  0  0  0  0  0  0  0  0  0  0  0
  218.1070  165.8230  240.5070 O   0  0  0  0  0  0  0  0  0  0  0  0
  217.6580  165.6260  243.2740 C   0  0  0  0  0  0  0  0  0  0  0  0
  216.9480  165.3300  244.5670 C   0  0  0  0  0  0  0  0  0  0  0  0
  216.1160  164.4300  244.6380 O   0  0  0  0  0  0  0  0  0  0  0  0
  217.2590  166.0990  245.6010 N   0  0  0  0  0  0  0  0  0  0  0  0
  219.6630  162.1960  237.8430 N   0  0  0  0  0  0  0  0  0  0  0  0
  219.9930  160.8400  237.4420 C   0  0  2  0  0  0  0  0  0  0  0  0
  220.3480  160.7880  235.9670 C   0  0  0  0  0  0  0  0  0  0  0  0
  219.8770  161.5970  235.1640 O   0  0  0  0  0  0  0  0  0  0  0  0
  218.8410  159.8750  237.7100 C   0  0  0  0  0  0  0  0  0  0  0  0
  218.1400  160.0890  239.0260 C   0  0  0  0  0  0  0  0  0  0  0  0
  217.1610  161.0620  239.1610 C   0  0  0  0  0  0  0  0  0  0  0  0
  218.4540  159.3210  240.1310 C   0  0  0  0  0  0  0  0  0  0  0  0
  216.5150  161.2610  240.3540 C   0  0  0  0  0  0  0  0  0  0  0  0
  217.8160  159.5150  241.3310 C   0  0  0  0  0  0  0  0  0  0  0  0
  216.8450  160.4860  241.4370 C   0  0  0  0  0  0  0  0  0  0  0  0
  216.2000  160.6840  242.6350 O   0  0  0  0  0  0  0  0  0  0  0  0
  2  1  1  6
  3  2  1  0
  4  3  2  0
  5  2  1  0
  6  5  1  0
  7  6  1  0
  8  7  1  0
  9  8  1  0
 11 10  1  1
 12 11  1  0
 13 12  2  0
 14 11  1  0
 15 14  1  0
 16 15  2  0
 17 15  1  0
 18 16  1  0
 19 17  2  0
 20 18  2  0
 20 19  1  0
 21 20  1  0
 23 22  1  6
 24 23  1  0
 25 24  2  0
 26 23  1  0
 27 26  1  0
 28 27  1  0
 29 28  1  0
 30 29  1  0
 31 30  1  0
 32 30  2  0
 33 24  1  0
 34 33  1  0
 35 34  1  0
 36 35  2  0
 34 37  1  1
 38 37  1  0
 39 38  1  0
 40 38  1  0
 41 35  1  0
 42 41  1  0
 43 42  1  0
 44 43  2  0
 42 45  1  1
 46 45  1  0
 47 46  2  0
 48 46  1  0
 49 47  1  0
 50 48  2  0
 51 50  1  0
 51 49  2  0
 52 43  1  0
 53 52  1  0
 54 53  1  0
 55 54  2  0
 53 56  1  6
 57 56  1  0
 58 57  1  0
 59 58  1  0
 60 59  1  0
 61 60  1  0
 62 60  2  0
 63 54  1  0
 64 63  1  0
 65 64  1  0
 66 65  2  0
 64 67  1  6
 68 67  1  0
 69 68  1  0
 70 69  1  0
 71 70  1  0
 73 72  1  1
 74 73  1  0
 75 74  2  0
 76 73  1  0
 77 76  1  0
 78 77  2  0
 79 77  1  0
 80 78  1  0
 81 79  2  0
 82 80  2  0
 82 81  1  0
 83 82  1  0
 84 74  1  0
 85 84  1  0
 86 85  1  0
 87 86  2  0
 85 88  1  6
 89 88  1  0
 90 89  1  0
 91 90  2  0
 92 90  1  0
 93 86  1  0
 94 93  1  0
 95 94  1  0
 96 95  2  0
 94 97  1  1
 98 95  1  0
 99 98  1  0
100 99  1  0
101100  2  0
102100  1  0
103102  1  0
104103  1  0
105104  2  0
103106  1  1
107106  1  0
108104  1  0
109108  1  1
110109  1  0
111110  2  0
112109  1  0
113112  1  0
112114  1  6
116115  1  6
117116  1  0
118117  2  0
119116  1  0
120119  1  0
121120  2  0
122120  1  0
123121  1  0
124122  2  0
125123  2  0
125124  1  0
126117  1  0
127126  1  0
128127  1  0
129128  2  0
127130  1  1
131130  1  0
132131  2  0
133131  1  0
135134  1  6
136135  1  0
137136  2  0
138135  1  0
139138  1  0
140139  2  0
141139  1  0
142140  1  0
143141  2  0
144143  1  0
144142  2  0
145144  1  0
M  END
$$$$
