
     RDKit          3D

145144  0  0  0  0  0  0  0  0999 V2000
   46.5080    8.3540  -58.9950 N   0  0  0  0  0  0  0  0  0  0  0  0
   45.9740    8.8240  -57.7200 C   0  0  2  0  0  0  0  0  0  0  0  0
   46.4490    7.9530  -56.5630 C   0  0  0  0  0  0  0  0  0  0  0  0
   47.0870    8.4370  -55.6210 O   0  0  0  0  0  0  0  0  0  0  0  0
   44.4420    8.8370  -57.7680 C   0  0  0  0  0  0  0  0  0  0  0  0
   43.8010    9.8190  -58.7450 C   0  0  0  0  0  0  0  0  0  0  0  0
   42.5620   10.4640  -58.1130 C   0  0  0  0  0  0  0  0  0  0  0  0
   41.3400    9.5430  -58.1280 C   0  0  0  0  0  0  0  0  0  0  0  0
   40.0590   10.3000  -58.2660 N   0  0  0  0  0  0  0  0  0  0  0  0
   49.5530    9.2620  -54.3310 N   0  0  0  0  0  0  0  0  0  0  0  0
   48.9800    9.9260  -53.1650 C   0  0  2  0  0  0  0  0  0  0  0  0
   48.4230    8.9630  -52.1190 C   0  0  0  0  0  0  0  0  0  0  0  0
   47.6760    9.3990  -51.2350 O   0  0  0  0  0  0  0  0  0  0  0  0
   47.8920   10.9120  -53.6080 C   0  0  0  0  0  0  0  0  0  0  0  0
   48.3640   11.9140  -54.6450 C   0  0  0  0  0  0  0  0  0  0  0  0
   49.5290   12.6460  -54.4540 C   0  0  0  0  0  0  0  0  0  0  0  0
   47.6440   12.1250  -55.8160 C   0  0  0  0  0  0  0  0  0  0  0  0
   49.9660   13.5590  -55.4010 C   0  0  0  0  0  0  0  0  0  0  0  0
   48.0730   13.0370  -56.7680 C   0  0  0  0  0  0  0  0  0  0  0  0
   49.2340   13.7500  -56.5540 C   0  0  0  0  0  0  0  0  0  0  0  0
   49.6640   14.6570  -57.4970 O   0  0  0  0  0  0  0  0  0  0  0  0
   42.9480    9.0330  -50.5370 N   0  0  0  0  0  0  0  0  0  0  0  0
   43.4370   10.4050  -50.4080 C   0  0  2  0  0  0  0  0  0  0  0  0
   43.2980   11.1010  -51.7550 C   0  0  0  0  0  0  0  0  0  0  0  0
   44.1170   10.9070  -52.6570 O   0  0  0  0  0  0  0  0  0  0  0  0
   44.8790   10.4170  -49.9170 C   0  0  0  0  0  0  0  0  0  0  0  0
   45.4250   11.8050  -49.6490 C   0  0  0  0  0  0  0  0  0  0  0  0
   46.5590   11.7460  -48.6470 C   0  0  0  0  0  0  0  0  0  0  0  0
   46.1200   11.1220  -47.4040 N   0  0  0  0  0  0  0  0  0  0  0  0
   45.7280   11.7950  -46.3290 C   0  0  0  0  0  0  0  0  0  0  0  0
   45.7160   13.1210  -46.3430 N   0  0  0  0  0  0  0  0  0  0  0  0
   45.3410   11.1420  -45.2420 N   0  0  0  0  0  0  0  0  0  0  0  0
   42.2590   11.9280  -51.8880 N   0  0  0  0  0  0  0  0  0  0  0  0
   42.0060   12.5970  -53.1600 C   0  0  2  0  0  0  0  0  0  0  0  0
   43.0070   13.7200  -53.4110 C   0  0  0  0  0  0  0  0  0  0  0  0
   43.4740   13.8970  -54.5430 O   0  0  0  0  0  0  0  0  0  0  0  0
   40.5760   13.1380  -53.1910 C   0  0  0  0  0  0  0  0  0  0  0  0
   40.0670   13.6860  -54.5290 C   0  0  0  0  0  0  0  0  0  0  0  0
   40.4010   12.7380  -55.6730 C   0  0  0  0  0  0  0  0  0  0  0  0
   38.5710   13.9580  -54.4710 C   0  0  0  0  0  0  0  0  0  0  0  0
   43.3540   14.4840  -52.3750 N   0  0  0  0  0  0  0  0  0  0  0  0
   44.1930   15.6670  -52.5170 C   0  0  2  0  0  0  0  0  0  0  0  0
   45.4700   15.5040  -51.7060 C   0  0  0  0  0  0  0  0  0  0  0  0
   45.4190   15.1440  -50.5250 O   0  0  0  0  0  0  0  0  0  0  0  0
   43.4660   16.9310  -52.0460 C   0  0  0  0  0  0  0  0  0  0  0  0
   42.1060   17.1200  -52.6500 C   0  0  0  0  0  0  0  0  0  0  0  0
   41.9540   17.3750  -54.0010 C   0  0  0  0  0  0  0  0  0  0  0  0
   40.9760   17.0700  -51.8510 C   0  0  0  0  0  0  0  0  0  0  0  0
   40.6940   17.5550  -54.5480 C   0  0  0  0  0  0  0  0  0  0  0  0
   39.7170   17.2520  -52.3900 C   0  0  0  0  0  0  0  0  0  0  0  0
   39.5750   17.4940  -53.7390 C   0  0  0  0  0  0  0  0  0  0  0  0
   46.6090   15.7900  -52.3340 N   0  0  0  0  0  0  0  0  0  0  0  0
   47.8690   15.9160  -51.6160 C   0  0  2  0  0  0  0  0  0  0  0  0
   48.7460   16.9300  -52.3330 C   0  0  0  0  0  0  0  0  0  0  0  0
   48.8640   16.8980  -53.5610 O   0  0  0  0  0  0  0  0  0  0  0  0
   48.6120   14.5820  -51.4950 C   0  0  0  0  0  0  0  0  0  0  0  0
   49.7360   14.6490  -50.4800 C   0  0  0  0  0  0  0  0  0  0  0  0
   49.8720   13.3810  -49.6610 C   0  0  0  0  0  0  0  0  0  0  0  0
   50.9550   13.4980  -48.6870 N   0  0  0  0  0  0  0  0  0  0  0  0
   52.2480   13.5430  -48.9950 C   0  0  0  0  0  0  0  0  0  0  0  0
   52.6430   13.4750  -50.2600 N   0  0  0  0  0  0  0  0  0  0  0  0
   53.1520   13.6540  -48.0320 N   0  0  0  0  0  0  0  0  0  0  0  0
   49.3660   17.8250  -51.5550 N   0  0  0  0  0  0  0  0  0  0  0  0
   50.2010   18.8640  -52.1500 C   0  0  2  0  0  0  0  0  0  0  0  0
   51.3990   18.2830  -52.8870 C   0  0  0  0  0  0  0  0  0  0  0  0
   51.8760   18.8820  -53.8570 O   0  0  0  0  0  0  0  0  0  0  0  0
   50.6750   19.8550  -51.0860 C   0  0  0  0  0  0  0  0  0  0  0  0
   49.5980   20.7910  -50.5600 C   0  0  0  0  0  0  0  0  0  0  0  0
   50.0400   21.4690  -49.2710 C   0  0  0  0  0  0  0  0  0  0  0  0
   48.8610   22.0500  -48.5080 C   0  0  0  0  0  0  0  0  0  0  0  0
   48.5540   21.2580  -47.2870 N   0  0  0  0  0  0  0  0  0  0  0  0
   42.2790   20.6160  -46.8130 N   0  0  0  0  0  0  0  0  0  0  0  0
   43.2200   20.9940  -47.8590 C   0  0  2  0  0  0  0  0  0  0  0  0
   43.1770   22.4960  -48.1150 C   0  0  0  0  0  0  0  0  0  0  0  0
   42.1060   23.0600  -48.3590 O   0  0  0  0  0  0  0  0  0  0  0  0
   42.8910   20.2310  -49.1410 C   0  0  0  0  0  0  0  0  0  0  0  0
   44.0270   20.1390  -50.1290 C   0  0  0  0  0  0  0  0  0  0  0  0
   45.2660   19.6410  -49.7510 C   0  0  0  0  0  0  0  0  0  0  0  0
   43.8540   20.5380  -51.4470 C   0  0  0  0  0  0  0  0  0  0  0  0
   46.3040   19.5530  -50.6580 C   0  0  0  0  0  0  0  0  0  0  0  0
   44.8840   20.4530  -52.3580 C   0  0  0  0  0  0  0  0  0  0  0  0
   46.1070   19.9620  -51.9600 C   0  0  0  0  0  0  0  0  0  0  0  0
   47.1350   19.8780  -52.8720 O   0  0  0  0  0  0  0  0  0  0  0  0
   44.3450   23.1430  -48.0700 N   0  0  0  0  0  0  0  0  0  0  0  0
   44.4520   24.5610  -48.4190 C   0  0  2  0  0  0  0  0  0  0  0  0
   44.5500   24.6750  -49.9370 C   0  0  0  0  0  0  0  0  0  0  0  0
   45.6240   24.8530  -50.5170 O   0  0  0  0  0  0  0  0  0  0  0  0
   45.6520   25.2150  -47.7460 C   0  0  0  0  0  0  0  0  0  0  0  0
   45.6570   26.7320  -47.9020 C   0  0  0  0  0  0  0  0  0  0  0  0
   47.0470   27.3360  -47.8460 C   0  0  0  0  0  0  0  0  0  0  0  0
   47.9130   26.8690  -47.1060 O   0  0  0  0  0  0  0  0  0  0  0  0
   47.2700   28.3760  -48.6430 N   0  0  0  0  0  0  0  0  0  0  0  0
   43.3970   24.5730  -50.5900 N   0  0  0  0  0  0  0  0  0  0  0  0
   43.3270   24.6710  -52.0470 C   0  0  2  0  0  0  0  0  0  0  0  0
   43.3310   26.1110  -52.5410 C   0  0  0  0  0  0  0  0  0  0  0  0
   42.6190   26.4470  -53.4900 O   0  0  0  0  0  0  0  0  0  0  0  0
   42.0890   23.9310  -52.5470 C   0  0  0  0  0  0  0  0  0  0  0  0
   44.1130   26.9780  -51.9200 N   0  0  0  0  0  0  0  0  0  0  0  0
   44.1230   28.3720  -52.3080 C   0  0  0  0  0  0  0  0  0  0  0  0
   44.7870   29.2310  -51.2550 C   0  0  0  0  0  0  0  0  0  0  0  0
   45.2540   28.7510  -50.2220 O   0  0  0  0  0  0  0  0  0  0  0  0
   44.8080   30.5340  -51.5440 N   0  0  0  0  0  0  0  0  0  0  0  0
   45.4970   31.4770  -50.6690 C   0  0  2  0  0  0  0  0  0  0  0  0
   44.7710   31.6450  -49.3380 C   0  0  0  0  0  0  0  0  0  0  0  0
   45.4130   31.7020  -48.2820 O   0  0  0  0  0  0  0  0  0  0  0  0
   45.6520   32.8250  -51.3730 C   0  0  0  0  0  0  0  0  0  0  0  0
   44.3910   33.4170  -51.6310 O   0  0  0  0  0  0  0  0  0  0  0  0
   43.4460   31.7410  -49.3660 N   0  0  0  0  0  0  0  0  0  0  0  0
   42.6710   31.8540  -48.1360 C   0  0  2  0  0  0  0  0  0  0  0  0
   42.9250   30.6410  -47.2500 C   0  0  0  0  0  0  0  0  0  0  0  0
   42.5860   29.5150  -47.6440 O   0  0  0  0  0  0  0  0  0  0  0  0
   41.1770   31.9760  -48.4300 C   0  0  2  0  0  0  0  0  0  0  0  0
   40.9430   33.0860  -49.3060 O   0  0  0  0  0  0  0  0  0  0  0  0
   40.3910   32.1670  -47.1370 C   0  0  0  0  0  0  0  0  0  0  0  0
   34.8520   26.4500  -49.7370 N   0  0  0  0  0  0  0  0  0  0  0  0
   35.4140   26.6150  -51.0710 C   0  0  2  0  0  0  0  0  0  0  0  0
   36.9250   26.7750  -50.9850 C   0  0  0  0  0  0  0  0  0  0  0  0
   37.4440   27.4490  -50.0900 O   0  0  0  0  0  0  0  0  0  0  0  0
   34.8000   27.8220  -51.7790 C   0  0  0  0  0  0  0  0  0  0  0  0
   35.0270   27.8300  -53.2670 C   0  0  0  0  0  0  0  0  0  0  0  0
   35.8840   28.7530  -53.8460 C   0  0  0  0  0  0  0  0  0  0  0  0
   34.3900   26.9110  -54.0850 C   0  0  0  0  0  0  0  0  0  0  0  0
   36.0980   28.7610  -55.2140 C   0  0  0  0  0  0  0  0  0  0  0  0
   34.5990   26.9150  -55.4540 C   0  0  0  0  0  0  0  0  0  0  0  0
   35.4540   27.8410  -56.0190 C   0  0  0  0  0  0  0  0  0  0  0  0
   37.6310   26.1420  -51.9260 N   0  0  0  0  0  0  0  0  0  0  0  0
   39.0940   26.0790  -51.9090 C   0  0  2  0  0  0  0  0  0  0  0  0
   39.6010   25.5250  -50.5800 C   0  0  0  0  0  0  0  0  0  0  0  0
   40.7280   25.7970  -50.1610 O   0  0  0  0  0  0  0  0  0  0  0  0
   39.7130   27.4470  -52.2090 C   0  0  0  0  0  0  0  0  0  0  0  0
   39.5010   27.8770  -53.6500 C   0  0  0  0  0  0  0  0  0  0  0  0
   39.0320   27.0970  -54.4800 O   0  0  0  0  0  0  0  0  0  0  0  0
   39.8490   29.1200  -53.9540 N   0  0  0  0  0  0  0  0  0  0  0  0
   38.7900   21.7670  -48.9400 N   0  0  0  0  0  0  0  0  0  0  0  0
   38.0640   20.5070  -48.9730 C   0  0  2  0  0  0  0  0  0  0  0  0
   38.7940   19.4240  -48.1840 C   0  0  0  0  0  0  0  0  0  0  0  0
   39.9990   19.5060  -47.9300 O   0  0  0  0  0  0  0  0  0  0  0  0
   37.8360   20.0370  -50.4180 C   0  0  0  0  0  0  0  0  0  0  0  0
   37.4210   21.1300  -51.3840 C   0  0  0  0  0  0  0  0  0  0  0  0
   36.0920   21.5280  -51.4830 C   0  0  0  0  0  0  0  0  0  0  0  0
   38.3510   21.7490  -52.2110 C   0  0  0  0  0  0  0  0  0  0  0  0
   35.7040   22.5210  -52.3670 C   0  0  0  0  0  0  0  0  0  0  0  0
   37.9710   22.7430  -53.0990 C   0  0  0  0  0  0  0  0  0  0  0  0
   36.6460   23.1240  -53.1720 C   0  0  0  0  0  0  0  0  0  0  0  0
   36.2590   24.1090  -54.0500 O   0  0  0  0  0  0  0  0  0  0  0  0
  2  1  1  6
  3  2  1  0
  4  3  2  0
  5  2  1  0
  6  5  1  0
  7  6  1  0
  8  7  1  0
  9  8  1  0
 11 10  1  6
 12 11  1  0
 13 12  2  0
 14 11  1  0
 15 14  1  0
 16 15  2  0
 17 15  1  0
 18 16  1  0
 19 17  2  0
 20 19  1  0
 20 18  2  0
 21 20  1  0
 23 22  1  6
 24 23  1  0
 25 24  2  0
 26 23  1  0
 27 26  1  0
 28 27  1  0
 29 28  1  0
 30 29  1  0
 31 30  1  0
 32 30  2  0
 33 24  1  0
 34 33  1  0
 35 34  1  0
 36 35  2  0
 34 37  1  1
 38 37  1  0
 39 38  1  0
 40 38  1  0
 41 35  1  0
 42 41  1  0
 43 42  1  0
 44 43  2  0
 42 45  1  1
 46 45  1  0
 47 46  2  0
 48 46  1  0
 49 47  1  0
 50 48  2  0
 51 49  2  0
 51 50  1  0
 52 43  1  0
 53 52  1  0
 54 53  1  0
 55 54  2  0
 53 56  1  6
 57 56  1  0
 58 57  1  0
 59 58  1  0
 60 59  1  0
 61 60  1  0
 62 60  2  0
 63 54  1  0
 64 63  1  0
 65 64  1  0
 66 65  2  0
 64 67  1  1
 68 67  1  0
 69 68  1  0
 70 69  1  0
 71 70  1  0
 73 72  1  1
 74 73  1  0
 75 74  2  0
 76 73  1  0
 77 76  1  0
 78 77  2  0
 79 77  1  0
 80 78  1  0
 81 79  2  0
 82 81  1  0
 82 80  2  0
 83 82  1  0
 84 74  1  0
 85 84  1  0
 86 85  1  0
 87 86  2  0
 85 88  1  1
 89 88  1  0
 90 89  1  0
 91 90  2  0
 92 90  1  0
 93 86  1  0
 94 93  1  0
 95 94  1  0
 96 95  2  0
 94 97  1  1
 98 95  1  0
 99 98  1  0
100 99  1  0
101100  2  0
102100  1  0
103102  1  0
104103  1  0
105104  2  0
103106  1  6
107106  1  0
108104  1  0
109108  1  6
110109  1  0
111110  2  0
112109  1  0
113112  1  0
112114  1  1
116115  1  1
117116  1  0
118117  2  0
119116  1  0
120119  1  0
121120  2  0
122120  1  0
123121  1  0
124122  2  0
125124  1  0
125123  2  0
126117  1  0
127126  1  0
128127  1  0
129128  2  0
127130  1  1
131130  1  0
132131  2  0
133131  1  0
135134  1  6
136135  1  0
137136  2  0
138135  1  0
139138  1  0
140139  2  0
141139  1  0
142140  1  0
143141  2  0
144143  1  0
144142  2  0
145144  1  0
M  END
$$$$
