
     RDKit          3D

159160  0  0  0  0  0  0  0  0999 V2000
   60.4840   43.2850   70.4550 N   0  0  0  0  0  0  0  0  0  0  0  0
   59.8550   41.9770   70.3700 C   0  0  2  0  0  0  0  0  0  0  0  0
   60.4300   41.1050   69.2590 C   0  0  0  0  0  0  0  0  0  0  0  0
   59.9570   39.9810   69.0710 O   0  0  0  0  0  0  0  0  0  0  0  0
   58.3360   42.1350   70.2060 C   0  0  0  0  0  0  0  0  0  0  0  0
   57.6920   42.8400   71.3980 C   0  0  0  0  0  0  0  0  0  0  0  0
   56.2830   42.3670   71.6910 C   0  0  0  0  0  0  0  0  0  0  0  0
   56.0300   41.1680   71.8160 O   0  0  0  0  0  0  0  0  0  0  0  0
   55.3590   43.3130   71.8300 N   0  0  0  0  0  0  0  0  0  0  0  0
   51.2330   35.1700   65.2310 N   0  0  0  0  0  0  0  0  0  0  0  0
   49.8820   34.7460   65.5690 C   0  0  2  0  0  0  0  0  0  0  0  0
   49.9430   34.0560   66.9210 C   0  0  0  0  0  0  0  0  0  0  0  0
   50.7760   33.1680   67.1390 O   0  0  0  0  0  0  0  0  0  0  0  0
   49.2990   33.8150   64.4900 C   0  0  0  0  0  0  0  0  0  0  0  0
   47.8390   33.5120   64.7770 C   0  0  0  0  0  0  0  0  0  0  0  0
   49.4550   34.4440   63.1090 C   0  0  0  0  0  0  0  0  0  0  0  0
   49.0690   34.4680   67.8340 N   0  0  0  0  0  0  0  0  0  0  0  0
   49.1110   33.9740   69.2000 C   0  0  2  0  0  0  0  0  0  0  0  0
   47.6890   33.8660   69.7270 C   0  0  0  0  0  0  0  0  0  0  0  0
   46.7600   34.4750   69.1930 O   0  0  0  0  0  0  0  0  0  0  0  0
   49.9570   34.8830   70.1020 C   0  0  0  0  0  0  0  0  0  0  0  0
   49.3610   36.2560   70.3240 C   0  0  0  0  0  0  0  0  0  0  0  0
   48.4630   36.4880   71.3620 C   0  0  0  0  0  0  0  0  0  0  0  0
   49.7020   37.3220   69.5020 C   0  0  0  0  0  0  0  0  0  0  0  0
   47.9160   37.7420   71.5710 C   0  0  0  0  0  0  0  0  0  0  0  0
   49.1620   38.5830   69.7040 C   0  0  0  0  0  0  0  0  0  0  0  0
   48.2700   38.7870   70.7390 C   0  0  0  0  0  0  0  0  0  0  0  0
   47.7280   40.0360   70.9410 O   0  0  0  0  0  0  0  0  0  0  0  0
   47.5280   33.0760   70.7820 N   0  0  0  0  0  0  0  0  0  0  0  0
   46.2210   32.8870   71.3890 C   0  0  2  0  0  0  0  0  0  0  0  0
   45.9530   33.9380   72.4590 C   0  0  0  0  0  0  0  0  0  0  0  0
   46.8220   34.2390   73.2820 O   0  0  0  0  0  0  0  0  0  0  0  0
   46.0940   31.4930   71.9950 C   0  0  0  0  0  0  0  0  0  0  0  0
   44.6760   31.2090   72.3950 C   0  0  0  0  0  0  0  0  0  0  0  0
   43.6890   31.0610   71.4320 C   0  0  0  0  0  0  0  0  0  0  0  0
   44.3110   31.1410   73.7300 C   0  0  0  0  0  0  0  0  0  0  0  0
   42.3800   30.8230   71.7850 C   0  0  0  0  0  0  0  0  0  0  0  0
   43.0050   30.9030   74.0970 C   0  0  0  0  0  0  0  0  0  0  0  0
   42.0400   30.7450   73.1200 C   0  0  0  0  0  0  0  0  0  0  0  0
   40.7330   30.5080   73.4790 O   0  0  0  0  0  0  0  0  0  0  0  0
   44.7360   34.4850   72.4440 N   0  0  0  0  0  0  0  0  0  0  0  0
   44.2850   35.4970   73.4020 C   0  0  2  0  0  0  0  0  0  0  0  0
   43.2000   34.8620   74.2720 C   0  0  0  0  0  0  0  0  0  0  0  0
   42.0550   34.7080   73.8380 O   0  0  0  0  0  0  0  0  0  0  0  0
   43.7760   36.7380   72.6740 C   0  0  0  0  0  0  0  0  0  0  0  0
   43.5410   37.9150   73.5680 C   0  0  0  0  0  0  0  0  0  0  0  0
   42.6100   37.9060   74.5850 N   0  0  0  0  0  0  0  0  0  0  0  0
   44.1140   39.1420   73.5950 C   0  0  0  0  0  0  0  0  0  0  0  0
   42.6200   39.0760   75.2000 C   0  0  0  0  0  0  0  0  0  0  0  0
   43.5250   39.8430   74.6200 N   0  0  0  0  0  0  0  0  0  0  0  0
   43.5630   34.5200   75.5120 N   0  0  0  0  0  0  0  0  0  0  0  0
   42.6860   33.7320   76.3760 C   0  0  2  0  0  0  0  0  0  0  0  0
   41.4570   34.5030   76.8370 C   0  0  0  0  0  0  0  0  0  0  0  0
   40.4380   33.8860   77.1640 O   0  0  0  0  0  0  0  0  0  0  0  0
   43.4590   33.2310   77.5950 C   0  0  0  0  0  0  0  0  0  0  0  0
   43.7970   34.3160   78.6090 C   0  0  0  0  0  0  0  0  0  0  0  0
   44.4050   33.7350   79.8730 C   0  0  0  0  0  0  0  0  0  0  0  0
   45.1680   34.7990   80.6430 C   0  0  0  0  0  0  0  0  0  0  0  0
   45.7650   34.2740   81.9000 N   0  0  0  0  0  0  0  0  0  0  0  0
   41.5140   35.8260   76.8470 N   0  0  0  0  0  0  0  0  0  0  0  0
   40.4090   36.6180   77.3590 C   0  0  2  0  0  0  0  0  0  0  0  0
   39.3650   36.9590   76.2810 C   0  0  0  0  0  0  0  0  0  0  0  0
   38.3450   37.5710   76.6210 O   0  0  0  0  0  0  0  0  0  0  0  0
   40.9590   37.8930   78.0450 C   0  0  0  0  0  0  0  0  0  0  0  0
   41.6140   37.6050   79.4230 C   0  0  0  0  0  0  0  0  0  0  0  0
   41.0690   36.8470   80.2310 O   0  0  0  0  0  0  0  0  0  0  0  0
   42.7760   38.2080   79.6820 N   0  0  0  0  0  0  0  0  0  0  0  0
   57.0780   42.1050   66.1240 N   0  0  0  0  0  0  0  0  0  0  0  0
   57.7800   41.0070   65.4440 C   0  0  2  0  0  0  0  0  0  0  0  0
   57.9800   41.3330   63.9600 C   0  0  0  0  0  0  0  0  0  0  0  0
   58.8700   40.7740   63.3130 O   0  0  0  0  0  0  0  0  0  0  0  0
   57.0350   39.6680   65.6600 C   0  0  0  0  0  0  0  0  0  0  0  0
   57.4460   38.8900   66.9210 C   0  0  0  0  0  0  0  0  0  0  0  0
   57.0920   39.5810   68.2540 C   0  0  0  0  0  0  0  0  0  0  0  0
   57.4080   38.7150   69.3940 N   0  0  0  0  0  0  0  0  0  0  0  0
   56.5300   38.0090   70.0930 C   0  0  0  0  0  0  0  0  0  0  0  0
   55.2500   38.0320   69.7600 N   0  0  0  0  0  0  0  0  0  0  0  0
   56.9320   37.3190   71.1580 N   0  0  0  0  0  0  0  0  0  0  0  0
   52.1800   30.3860   67.4270 N   0  0  0  0  0  0  0  0  0  0  0  0
   52.7460   29.6630   68.5590 C   0  0  2  0  0  0  0  0  0  0  0  0
   51.6610   29.4360   69.6030 C   0  0  0  0  0  0  0  0  0  0  0  0
   50.7730   30.2710   69.7950 O   0  0  0  0  0  0  0  0  0  0  0  0
   53.9330   30.4060   69.1890 C   0  0  0  0  0  0  0  0  0  0  0  0
   53.5400   31.5100   70.1600 C   0  0  0  0  0  0  0  0  0  0  0  0
   54.7370   32.0410   70.9140 C   0  0  0  0  0  0  0  0  0  0  0  0
   54.4010   33.2310   71.6890 N   0  0  0  0  0  0  0  0  0  0  0  0
   55.2960   33.9700   72.3360 C   0  0  0  0  0  0  0  0  0  0  0  0
   56.5810   33.6380   72.2970 N   0  0  0  0  0  0  0  0  0  0  0  0
   54.9100   35.0400   73.0170 N   0  0  0  0  0  0  0  0  0  0  0  0
   51.7420   28.2950   70.2790 N   0  0  0  0  0  0  0  0  0  0  0  0
   50.7540   27.9230   71.2800 C   0  0  2  0  0  0  0  0  0  0  0  0
   51.4340   27.1690   72.4110 C   0  0  0  0  0  0  0  0  0  0  0  0
   52.3630   26.3920   72.1760 O   0  0  0  0  0  0  0  0  0  0  0  0
   49.6350   27.0670   70.6680 C   0  0  0  0  0  0  0  0  0  0  0  0
   50.1650   25.9940   69.9080 O   0  0  0  0  0  0  0  0  0  0  0  0
   50.9690   27.4060   73.6380 N   0  0  0  0  0  0  0  0  0  0  0  0
   51.4420   26.6790   74.8160 C   0  0  2  0  0  0  0  0  0  0  0  0
   50.4840   25.5210   75.0600 C   0  0  0  0  0  0  0  0  0  0  0  0
   49.4400   25.6850   75.6950 O   0  0  0  0  0  0  0  0  0  0  0  0
   51.5280   27.6090   76.0220 C   0  0  0  0  0  0  0  0  0  0  0  0
   52.1690   26.9930   77.2470 C   0  0  0  0  0  0  0  0  0  0  0  0
   53.4260   26.4090   77.1800 C   0  0  0  0  0  0  0  0  0  0  0  0
   51.5160   27.0040   78.4750 C   0  0  0  0  0  0  0  0  0  0  0  0
   54.0130   25.8490   78.3000 C   0  0  0  0  0  0  0  0  0  0  0  0
   52.0940   26.4480   79.5990 C   0  0  0  0  0  0  0  0  0  0  0  0
   53.3420   25.8720   79.5070 C   0  0  0  0  0  0  0  0  0  0  0  0
   53.9220   25.3150   80.6260 O   0  0  0  0  0  0  0  0  0  0  0  0
   50.8430   24.3370   74.5540 N   0  0  0  0  0  0  0  0  0  0  0  0
   49.9710   23.1710   74.6070 C   0  0  2  0  0  0  0  0  0  0  0  0
   50.6190   21.9360   75.2190 C   0  0  0  0  0  0  0  0  0  0  0  0
   49.9030   20.9740   75.5210 O   0  0  0  0  0  0  0  0  0  0  0  0
   49.4690   22.8170   73.1980 C   0  0  0  0  0  0  0  0  0  0  0  0
   48.4690   23.7700   72.5370 C   0  0  0  0  0  0  0  0  0  0  0  0
   48.1550   23.3020   71.1300 C   0  0  0  0  0  0  0  0  0  0  0  0
   47.1920   23.8800   73.3470 C   0  0  0  0  0  0  0  0  0  0  0  0
   56.7960   23.0300   75.7660 N   0  0  0  0  0  0  0  0  0  0  0  0
   56.7920   23.9010   74.5960 C   0  0  2  0  0  0  0  0  0  0  0  0
   57.7660   25.0620   74.7730 C   0  0  0  0  0  0  0  0  0  0  0  0
   57.9910   25.5570   75.8820 O   0  0  0  0  0  0  0  0  0  0  0  0
   55.3850   24.4420   74.3180 C   0  0  0  0  0  0  0  0  0  0  0  0
   54.5880   23.5510   73.3800 C   0  0  0  0  0  0  0  0  0  0  0  0
   55.1240   22.5040   72.9590 O   0  0  0  0  0  0  0  0  0  0  0  0
   53.4330   23.9000   73.0510 O   0  0  0  0  0  0  0  0  0  0  0  0
   58.3490   25.4870   73.6540 N   0  0  0  0  0  0  0  0  0  0  0  0
   59.2720   26.6130   73.6080 C   0  0  2  0  0  0  0  0  0  0  0  0
   58.5690   27.8270   73.0120 C   0  0  0  0  0  0  0  0  0  0  0  0
   57.9010   27.7180   71.9770 O   0  0  0  0  0  0  0  0  0  0  0  0
   60.5140   26.2610   72.7850 C   0  0  0  0  0  0  0  0  0  0  0  0
   61.1790   27.4230   72.3210 O   0  0  0  0  0  0  0  0  0  0  0  0
   58.7160   28.9790   73.6730 N   0  0  0  0  0  0  0  0  0  0  0  0
   58.1370   30.2140   73.1590 C   0  0  2  0  0  0  0  0  0  0  0  0
   58.7750   30.6460   71.8470 C   0  0  0  0  0  0  0  0  0  0  0  0
   58.1470   31.3840   71.0790 O   0  0  0  0  0  0  0  0  0  0  0  0
   58.2820   31.3370   74.1850 C   0  0  0  0  0  0  0  0  0  0  0  0
   59.6310   31.7570   74.2870 O   0  0  0  0  0  0  0  0  0  0  0  0
   60.0120   30.2220   71.5870 N   0  0  0  0  0  0  0  0  0  0  0  0
   60.7190   30.5690   70.3630 C   0  0  2  0  0  0  0  0  0  0  0  0
   60.2930   29.7190   69.1740 C   0  0  0  0  0  0  0  0  0  0  0  0
   60.7480   29.9790   68.0540 O   0  0  0  0  0  0  0  0  0  0  0  0
   62.2310   30.4250   70.5720 C   0  0  0  0  0  0  0  0  0  0  0  0
   62.6860   31.2510   71.6290 O   0  0  0  0  0  0  0  0  0  0  0  0
   59.4320   28.7260   69.3850 N   0  0  0  0  0  0  0  0  0  0  0  0
   59.0660   27.8040   68.3300 C   0  0  0  0  0  0  0  0  0  0  0  0
   57.9410   28.2770   67.4350 C   0  0  0  0  0  0  0  0  0  0  0  0
   56.9260   27.5880   67.2970 O   0  0  0  0  0  0  0  0  0  0  0  0
   58.1070   29.4460   66.8190 N   0  0  0  0  0  0  0  0  0  0  0  0
   57.1470   29.9040   65.8250 C   0  0  2  0  0  0  0  0  0  0  0  0
   57.2070   29.0010   64.6020 C   0  0  0  0  0  0  0  0  0  0  0  0
   58.2870   28.6000   64.1600 O   0  0  0  0  0  0  0  0  0  0  0  0
   57.4330   31.3490   65.4250 C   0  0  0  0  0  0  0  0  0  0  0  0
   57.3840   32.3320   66.5610 C   0  0  0  0  0  0  0  0  0  0  0  0
   58.4250   32.7230   67.3540 C   0  0  0  0  0  0  0  0  0  0  0  0
   56.2370   33.0600   67.0180 C   0  0  0  0  0  0  0  0  0  0  0  0
   57.9970   33.6490   68.2730 N   0  0  0  0  0  0  0  0  0  0  0  0
   56.6580   33.8710   68.0900 C   0  0  0  0  0  0  0  0  0  0  0  0
   54.8960   33.1040   66.6240 C   0  0  0  0  0  0  0  0  0  0  0  0
   55.7850   34.7150   68.7730 C   0  0  0  0  0  0  0  0  0  0  0  0
   54.0320   33.9440   67.3020 C   0  0  0  0  0  0  0  0  0  0  0  0
   54.4800   34.7380   68.3650 C   0  0  0  0  0  0  0  0  0  0  0  0
  2  1  1  6
  3  2  1  0
  4  3  2  0
  5  2  1  0
  6  5  1  0
  7  6  1  0
  8  7  2  0
  9  7  1  0
 11 10  1  6
 12 11  1  0
 13 12  2  0
 14 11  1  0
 15 14  1  0
 16 14  1  0
 17 12  1  0
 18 17  1  0
 19 18  1  0
 20 19  2  0
 18 21  1  1
 22 21  1  0
 23 22  2  0
 24 22  1  0
 25 23  1  0
 26 24  2  0
 27 25  2  0
 27 26  1  0
 28 27  1  0
 29 19  1  0
 30 29  1  0
 31 30  1  0
 32 31  2  0
 30 33  1  1
 34 33  1  0
 35 34  2  0
 36 34  1  0
 37 35  1  0
 38 36  2  0
 39 38  1  0
 39 37  2  0
 40 39  1  0
 41 31  1  0
 42 41  1  0
 43 42  1  0
 44 43  2  0
 42 45  1  6
 46 45  1  0
 47 46  1  0
 48 46  2  0
 49 47  2  0
 50 49  1  0
 50 48  1  0
 51 43  1  0
 52 51  1  0
 53 52  1  0
 54 53  2  0
 52 55  1  1
 56 55  1  0
 57 56  1  0
 58 57  1  0
 59 58  1  0
 60 53  1  0
 61 60  1  0
 62 61  1  0
 63 62  2  0
 61 64  1  6
 65 64  1  0
 66 65  2  0
 67 65  1  0
 69 68  1  6
 70 69  1  0
 71 70  2  0
 72 69  1  0
 73 72  1  0
 74 73  1  0
 75 74  1  0
 76 75  1  0
 77 76  1  0
 78 76  2  0
 80 79  1  6
 81 80  1  0
 82 81  2  0
 83 80  1  0
 84 83  1  0
 85 84  1  0
 86 85  1  0
 87 86  1  0
 88 87  1  0
 89 87  2  0
 90 81  1  0
 91 90  1  0
 92 91  1  0
 93 92  2  0
 91 94  1  6
 95 94  1  0
 96 92  1  0
 97 96  1  0
 98 97  1  0
 99 98  2  0
 97100  1  1
101100  1  0
102101  2  0
103101  1  0
104102  1  0
105103  2  0
106105  1  0
106104  2  0
107106  1  0
108 98  1  0
109108  1  0
110109  1  0
111110  2  0
109112  1  6
113112  1  0
114113  1  0
115113  1  0
117116  1  1
118117  1  0
119118  2  0
120117  1  0
121120  1  0
122121  2  0
123121  1  0
124118  1  0
125124  1  0
126125  1  0
127126  2  0
125128  1  6
129128  1  0
130126  1  0
131130  1  0
132131  1  0
133132  2  0
131134  1  1
135134  1  0
136132  1  0
137136  1  0
138137  1  0
139138  2  0
137140  1  1
141140  1  0
142138  1  0
143142  1  0
144143  1  0
145144  2  0
146144  1  0
147146  1  0
148147  1  0
149148  2  0
147150  1  6
151150  1  0
152151  2  0
153151  1  0
154152  1  0
155154  1  0
155153  2  0
156153  1  0
157155  1  0
158156  2  0
159158  1  0
159157  2  0
M  END
$$$$
