
     RDKit          3D

 98 95  0  0  0  0  0  0  0  0999 V2000
    3.8570   69.2660    5.8010 N   0  0  0  0  0  0  0  0  0  0  0  0
    4.9870   68.3540    5.9480 C   0  0  2  0  0  0  0  0  0  0  0  0
    4.7550   67.1440    5.0550 C   0  0  0  0  0  0  0  0  0  0  0  0
    3.6100   66.7870    4.7630 O   0  0  0  0  0  0  0  0  0  0  0  0
    5.1420   67.8950    7.4000 C   0  0  0  0  0  0  0  0  0  0  0  0
    6.0820   68.7150    8.2760 C   0  0  0  0  0  0  0  0  0  0  0  0
    5.7320   68.4750    9.7380 C   0  0  0  0  0  0  0  0  0  0  0  0
    5.3820   67.0710    9.9330 N   0  0  0  0  0  0  0  0  0  0  0  0
    4.6610   66.6050   10.9550 C   0  0  0  0  0  0  0  0  0  0  0  0
    4.1730   67.4530   11.8720 N   0  0  0  0  0  0  0  0  0  0  0  0
    4.3960   65.2930   11.0370 N   0  0  0  0  0  0  0  0  0  0  0  0
   -4.7740   66.4220   11.9220 N   0  0  0  0  0  0  0  0  0  0  0  0
   -4.7400   67.8690   12.1150 C   0  0  2  0  0  0  0  0  0  0  0  0
   -5.0910   68.6000   10.8310 C   0  0  0  0  0  0  0  0  0  0  0  0
   -5.8800   69.5430   10.8550 O   0  0  0  0  0  0  0  0  0  0  0  0
   -3.3760   68.3140   12.6120 C   0  0  0  0  0  0  0  0  0  0  0  0
   -3.2650   68.2690   14.0800 C   0  0  0  0  0  0  0  0  0  0  0  0
   -1.9210   68.7550   14.4950 C   0  0  0  0  0  0  0  0  0  0  0  0
   -1.0750   67.5590   14.8070 C   0  0  0  0  0  0  0  0  0  0  0  0
    0.2400   67.9970   15.2600 N   0  0  0  0  0  0  0  0  0  0  0  0
    0.1320   75.7560   10.4960 N   0  0  0  0  0  0  0  0  0  0  0  0
   -1.0170   74.8610   10.4740 C   0  0  2  0  0  0  0  0  0  0  0  0
   -1.9020   75.1800   11.6560 C   0  0  0  0  0  0  0  0  0  0  0  0
   -1.4100   75.4780   12.7470 O   0  0  0  0  0  0  0  0  0  0  0  0
   -0.6270   73.3810   10.5400 C   0  0  0  0  0  0  0  0  0  0  0  0
   -0.0020   72.8770   11.8350 C   0  0  0  0  0  0  0  0  0  0  0  0
    1.3610   72.9200   11.9990 C   0  0  0  0  0  0  0  0  0  0  0  0
   -0.7560   72.3120   12.8580 C   0  0  0  0  0  0  0  0  0  0  0  0
    1.9790   72.4470   13.1240 C   0  0  0  0  0  0  0  0  0  0  0  0
   -0.1300   71.8230   14.0130 C   0  0  0  0  0  0  0  0  0  0  0  0
    1.2530   71.9070   14.1220 C   0  0  0  0  0  0  0  0  0  0  0  0
    1.9700   71.4660   15.2090 O   0  0  0  0  0  0  0  0  0  0  0  0
    3.5920   76.4690   14.1400 N   0  0  0  0  0  0  0  0  0  0  0  0
    4.4720   76.6260   12.9840 C   0  0  2  0  0  0  0  0  0  0  0  0
    5.3520   75.4110   12.8130 C   0  0  0  0  0  0  0  0  0  0  0  0
    6.0370   75.0010   13.7600 O   0  0  0  0  0  0  0  0  0  0  0  0
    5.4000   77.8310   13.1020 C   0  0  0  0  0  0  0  0  0  0  0  0
    4.6970   79.0320   13.0960 O   0  0  0  0  0  0  0  0  0  0  0  0
    5.3460   74.8620   11.5980 N   0  0  0  0  0  0  0  0  0  0  0  0
    6.3460   73.8800   11.2140 C   0  0  2  0  0  0  0  0  0  0  0  0
    7.7240   74.5250   11.3370 C   0  0  0  0  0  0  0  0  0  0  0  0
    7.9700   75.5980   10.7700 O   0  0  0  0  0  0  0  0  0  0  0  0
    6.1270   73.4460    9.7720 C   0  0  0  0  0  0  0  0  0  0  0  0
    4.7580   72.9350    9.3650 C   0  0  0  0  0  0  0  0  0  0  0  0
    4.2980   71.6690    9.7510 C   0  0  0  0  0  0  0  0  0  0  0  0
    3.9660   73.6820    8.4960 C   0  0  0  0  0  0  0  0  0  0  0  0
    3.0620   71.1920    9.3180 C   0  0  0  0  0  0  0  0  0  0  0  0
    2.7290   73.2180    8.0660 C   0  0  0  0  0  0  0  0  0  0  0  0
    2.2830   71.9750    8.4770 C   0  0  0  0  0  0  0  0  0  0  0  0
    1.0610   71.5420    8.0260 O   0  0  0  0  0  0  0  0  0  0  0  0
    8.6330   73.8750   12.0600 N   0  0  0  0  0  0  0  0  0  0  0  0
    9.9710   74.4260   12.1590 C   0  0  0  0  0  0  0  0  0  0  0  0
   10.8260   73.9260   11.0120 C   0  0  0  0  0  0  0  0  0  0  0  0
   11.8310   73.2420   11.2370 O   0  0  0  0  0  0  0  0  0  0  0  0
   13.3450   72.9340    8.6970 N   0  0  0  0  0  0  0  0  0  0  0  0
   14.7910   72.9580    8.6960 C   0  0  2  0  0  0  0  0  0  0  0  0
   15.2980   72.0000    7.6290 C   0  0  0  0  0  0  0  0  0  0  0  0
   14.6830   70.9470    7.4130 O   0  0  0  0  0  0  0  0  0  0  0  0
   15.3050   72.5310   10.0650 C   0  0  0  0  0  0  0  0  0  0  0  0
   14.8230   73.4490   11.1660 C   0  0  0  0  0  0  0  0  0  0  0  0
   15.6510   73.3800   12.4270 C   0  0  0  0  0  0  0  0  0  0  0  0
   16.8650   73.1770   12.3890 O   0  0  0  0  0  0  0  0  0  0  0  0
   14.9870   73.5440   13.5650 N   0  0  0  0  0  0  0  0  0  0  0  0
   16.0940   68.1790    8.2850 N   0  0  0  0  0  0  0  0  0  0  0  0
   14.9850   67.3270    8.7020 C   0  0  2  0  0  0  0  0  0  0  0  0
   15.0010   65.9980    7.9570 C   0  0  0  0  0  0  0  0  0  0  0  0
   15.3880   65.9250    6.7890 O   0  0  0  0  0  0  0  0  0  0  0  0
   13.6420   68.0240    8.4280 C   0  0  0  0  0  0  0  0  0  0  0  0
   13.0820   68.7740    9.6370 C   0  0  0  0  0  0  0  0  0  0  0  0
   13.6250   68.7170   10.7410 O   0  0  0  0  0  0  0  0  0  0  0  0
   11.9810   69.4830    9.4210 N   0  0  0  0  0  0  0  0  0  0  0  0
   14.5230   64.9510    8.6330 N   0  0  0  0  0  0  0  0  0  0  0  0
   14.2280   63.7080    7.9510 C   0  0  0  0  0  0  0  0  0  0  0  0
   13.2210   63.9160    6.8370 C   0  0  0  0  0  0  0  0  0  0  0  0
   12.4880   64.9030    6.7970 O   0  0  0  0  0  0  0  0  0  0  0  0
   13.1950   62.9620    5.9040 N   0  0  0  0  0  0  0  0  0  0  0  0
   12.4850   63.1790    4.6460 C   0  0  2  0  0  0  0  0  0  0  0  0
   10.9840   63.3420    4.8410 C   0  0  0  0  0  0  0  0  0  0  0  0
   10.3140   63.9390    3.9890 O   0  0  0  0  0  0  0  0  0  0  0  0
   12.7920   62.0140    3.6710 C   0  0  0  0  0  0  0  0  0  0  0  0
   14.2870   61.9770    3.3290 C   0  0  0  0  0  0  0  0  0  0  0  0
   12.3520   60.6750    4.2510 C   0  0  0  0  0  0  0  0  0  0  0  0
   10.4400   62.8410    5.9560 N   0  0  0  0  0  0  0  0  0  0  0  0
    9.0220   63.0040    6.2270 C   0  0  0  0  0  0  0  0  0  0  0  0
    8.6420   64.3750    6.7420 C   0  0  0  0  0  0  0  0  0  0  0  0
    7.5760   64.9010    6.3980 O   0  0  0  0  0  0  0  0  0  0  0  0
    9.5110   64.9780    7.5550 N   0  0  0  0  0  0  0  0  0  0  0  0
    9.2950   66.2960    8.1370 C   0  0  2  0  0  0  0  0  0  0  0  0
    9.8290   67.4190    7.2630 C   0  0  0  0  0  0  0  0  0  0  0  0
   10.1570   68.5020    7.7670 O   0  0  0  0  0  0  0  0  0  0  0  0
    9.9400   66.3520    9.5190 C   0  0  0  0  0  0  0  0  0  0  0  0
    9.3850   65.3490   10.5040 C   0  0  0  0  0  0  0  0  0  0  0  0
    8.0650   65.4470   10.9450 C   0  0  0  0  0  0  0  0  0  0  0  0
   10.1780   64.3170   11.0080 C   0  0  0  0  0  0  0  0  0  0  0  0
    7.5490   64.5520   11.8470 C   0  0  0  0  0  0  0  0  0  0  0  0
    9.6640   63.4070   11.9180 C   0  0  0  0  0  0  0  0  0  0  0  0
    8.3500   63.5440   12.3310 C   0  0  0  0  0  0  0  0  0  0  0  0
    7.8190   62.6680   13.2290 O   0  0  0  0  0  0  0  0  0  0  0  0
  2  1  1  1
  3  2  1  0
  4  3  2  0
  5  2  1  0
  6  5  1  0
  7  6  1  0
  8  7  1  0
  9  8  1  0
 10  9  1  0
 11  9  2  0
 13 12  1  6
 14 13  1  0
 15 14  2  0
 16 13  1  0
 17 16  1  0
 18 17  1  0
 19 18  1  0
 20 19  1  0
 22 21  1  1
 23 22  1  0
 24 23  2  0
 25 22  1  0
 26 25  1  0
 27 26  2  0
 28 26  1  0
 29 27  1  0
 30 28  2  0
 31 30  1  0
 31 29  2  0
 32 31  1  0
 34 33  1  1
 35 34  1  0
 36 35  2  0
 37 34  1  0
 38 37  1  0
 39 35  1  0
 40 39  1  0
 41 40  1  0
 42 41  2  0
 40 43  1  6
 44 43  1  0
 45 44  2  0
 46 44  1  0
 47 45  1  0
 48 46  2  0
 49 48  1  0
 49 47  2  0
 50 49  1  0
 51 41  1  0
 52 51  1  0
 53 52  1  0
 54 53  2  0
 56 55  1  1
 57 56  1  0
 58 57  2  0
 59 56  1  0
 60 59  1  0
 61 60  1  0
 62 61  2  0
 63 61  1  0
 65 64  1  6
 66 65  1  0
 67 66  2  0
 68 65  1  0
 69 68  1  0
 70 69  2  0
 71 69  1  0
 72 66  1  0
 73 72  1  0
 74 73  1  0
 75 74  2  0
 76 74  1  0
 77 76  1  1
 78 77  1  0
 79 78  2  0
 80 77  1  0
 81 80  1  0
 82 80  1  0
 83 78  1  0
 84 83  1  0
 85 84  1  0
 86 85  2  0
 87 85  1  0
 88 87  1  0
 89 88  1  0
 90 89  2  0
 88 91  1  1
 92 91  1  0
 93 92  2  0
 94 92  1  0
 95 93  1  0
 96 94  2  0
 97 96  1  0
 97 95  2  0
 98 97  1  0
M  END
$$$$
