
     RDKit          3D

145144  0  0  0  0  0  0  0  0999 V2000
   -4.7740   66.4220   11.9220 N   0  0  0  0  0  0  0  0  0  0  0  0
   -4.7400   67.8690   12.1150 C   0  0  2  0  0  0  0  0  0  0  0  0
   -5.0910   68.6000   10.8310 C   0  0  0  0  0  0  0  0  0  0  0  0
   -5.8800   69.5430   10.8550 O   0  0  0  0  0  0  0  0  0  0  0  0
   -3.3760   68.3140   12.6120 C   0  0  0  0  0  0  0  0  0  0  0  0
   -3.2650   68.2690   14.0800 C   0  0  0  0  0  0  0  0  0  0  0  0
   -1.9210   68.7550   14.4950 C   0  0  0  0  0  0  0  0  0  0  0  0
   -1.0750   67.5590   14.8070 C   0  0  0  0  0  0  0  0  0  0  0  0
    0.2400   67.9970   15.2600 N   0  0  0  0  0  0  0  0  0  0  0  0
   -8.4570   70.4940   10.4700 N   0  0  0  0  0  0  0  0  0  0  0  0
   -8.3250   71.8650   10.9480 C   0  0  2  0  0  0  0  0  0  0  0  0
   -7.6760   72.8050    9.9380 C   0  0  0  0  0  0  0  0  0  0  0  0
   -7.5920   74.0010   10.2190 O   0  0  0  0  0  0  0  0  0  0  0  0
   -7.5490   71.8710   12.2770 C   0  0  0  0  0  0  0  0  0  0  0  0
   -8.1480   70.8540   13.2290 C   0  0  0  0  0  0  0  0  0  0  0  0
   -9.5310   70.6590   13.2760 C   0  0  0  0  0  0  0  0  0  0  0  0
   -7.3580   70.0530   14.0300 C   0  0  0  0  0  0  0  0  0  0  0  0
  -10.1090   69.7300   14.1070 C   0  0  0  0  0  0  0  0  0  0  0  0
   -7.9420   69.1020   14.8660 C   0  0  0  0  0  0  0  0  0  0  0  0
   -9.3220   68.9460   14.8870 C   0  0  0  0  0  0  0  0  0  0  0  0
   -9.9380   68.0100   15.6830 O   0  0  0  0  0  0  0  0  0  0  0  0
   -3.2120   75.0460   11.4410 N   0  0  0  0  0  0  0  0  0  0  0  0
   -4.2050   75.1830   12.5080 C   0  0  2  0  0  0  0  0  0  0  0  0
   -4.1640   73.9720   13.4230 C   0  0  0  0  0  0  0  0  0  0  0  0
   -4.4550   72.8500   12.9910 O   0  0  0  0  0  0  0  0  0  0  0  0
   -5.5930   75.3450   11.9100 C   0  0  0  0  0  0  0  0  0  0  0  0
   -6.6650   75.5960   12.9030 C   0  0  0  0  0  0  0  0  0  0  0  0
   -6.4730   76.9170   13.5990 C   0  0  0  0  0  0  0  0  0  0  0  0
   -6.6800   78.0280   12.6810 N   0  0  0  0  0  0  0  0  0  0  0  0
   -7.8720   78.5150   12.3710 C   0  0  0  0  0  0  0  0  0  0  0  0
   -8.9600   77.9730   12.9040 N   0  0  0  0  0  0  0  0  0  0  0  0
   -7.9800   79.5260   11.5210 N   0  0  0  0  0  0  0  0  0  0  0  0
   -3.8270   74.2020   14.6920 N   0  0  0  0  0  0  0  0  0  0  0  0
   -3.6590   73.1100   15.6400 C   0  0  2  0  0  0  0  0  0  0  0  0
   -4.9070   72.8560   16.4540 C   0  0  0  0  0  0  0  0  0  0  0  0
   -5.2500   71.6940   16.6800 O   0  0  0  0  0  0  0  0  0  0  0  0
   -2.4870   73.3920   16.5830 C   0  0  0  0  0  0  0  0  0  0  0  0
   -2.3200   72.4930   17.8030 C   0  0  0  0  0  0  0  0  0  0  0  0
   -2.2840   71.0510   17.4180 C   0  0  0  0  0  0  0  0  0  0  0  0
   -1.0300   72.8140   18.4980 C   0  0  0  0  0  0  0  0  0  0  0  0
   -5.6150   73.9170   16.8430 N   0  0  0  0  0  0  0  0  0  0  0  0
   -6.8300   73.8440   17.6400 C   0  0  2  0  0  0  0  0  0  0  0  0
   -8.0440   74.2980   16.8420 C   0  0  0  0  0  0  0  0  0  0  0  0
   -7.9600   75.2420   16.0470 O   0  0  0  0  0  0  0  0  0  0  0  0
   -6.6730   74.7090   18.8550 C   0  0  0  0  0  0  0  0  0  0  0  0
   -5.6660   74.2110   19.8010 C   0  0  0  0  0  0  0  0  0  0  0  0
   -5.9820   73.2660   20.7190 C   0  0  0  0  0  0  0  0  0  0  0  0
   -4.3890   74.6810   19.7690 C   0  0  0  0  0  0  0  0  0  0  0  0
   -5.0430   72.8160   21.6240 C   0  0  0  0  0  0  0  0  0  0  0  0
   -3.4530   74.2220   20.6620 C   0  0  0  0  0  0  0  0  0  0  0  0
   -3.7900   73.2840   21.5910 C   0  0  0  0  0  0  0  0  0  0  0  0
   -9.1840   73.6590   17.0950 N   0  0  0  0  0  0  0  0  0  0  0  0
  -10.4070   74.0060   16.3810 C   0  0  2  0  0  0  0  0  0  0  0  0
  -11.6100   73.3790   17.1000 C   0  0  0  0  0  0  0  0  0  0  0  0
  -11.5950   72.1720   17.3800 O   0  0  0  0  0  0  0  0  0  0  0  0
  -10.2900   73.5190   14.9290 C   0  0  0  0  0  0  0  0  0  0  0  0
  -11.3760   73.9240   13.9430 C   0  0  0  0  0  0  0  0  0  0  0  0
  -11.0880   75.1730   13.1240 C   0  0  0  0  0  0  0  0  0  0  0  0
  -12.3410   75.8110   12.7150 N   0  0  0  0  0  0  0  0  0  0  0  0
  -13.1070   75.4100   11.7080 C   0  0  0  0  0  0  0  0  0  0  0  0
  -12.7560   74.3670   10.9920 N   0  0  0  0  0  0  0  0  0  0  0  0
  -14.2320   76.0500   11.4140 N   0  0  0  0  0  0  0  0  0  0  0  0
  -12.6620   74.1760   17.3840 N   0  0  0  0  0  0  0  0  0  0  0  0
  -13.8020   73.6790   18.1600 C   0  0  2  0  0  0  0  0  0  0  0  0
  -14.4190   72.4630   17.4810 C   0  0  0  0  0  0  0  0  0  0  0  0
  -14.7740   71.4720   18.1370 O   0  0  0  0  0  0  0  0  0  0  0  0
  -14.8820   74.7750   18.2950 C   0  0  0  0  0  0  0  0  0  0  0  0
  -14.4410   76.2310   18.6930 C   0  0  0  0  0  0  0  0  0  0  0  0
  -14.2730   76.5360   20.2170 C   0  0  0  0  0  0  0  0  0  0  0  0
  -13.6730   77.9600   20.4930 C   0  0  0  0  0  0  0  0  0  0  0  0
  -14.6470   79.0950   20.4950 N   0  0  0  0  0  0  0  0  0  0  0  0
   -7.5020   80.2290   21.4130 N   0  0  0  0  0  0  0  0  0  0  0  0
   -8.3970   79.0960   21.6030 C   0  0  2  0  0  0  0  0  0  0  0  0
   -8.6230   78.8550   23.0870 C   0  0  0  0  0  0  0  0  0  0  0  0
   -7.6560   78.6910   23.8480 O   0  0  0  0  0  0  0  0  0  0  0  0
   -7.8260   77.8450   20.9520 C   0  0  0  0  0  0  0  0  0  0  0  0
   -8.7840   76.6830   20.8930 C   0  0  0  0  0  0  0  0  0  0  0  0
   -9.8400   76.6810   19.9870 C   0  0  0  0  0  0  0  0  0  0  0  0
   -8.6240   75.5770   21.7300 C   0  0  0  0  0  0  0  0  0  0  0  0
  -10.7220   75.6170   19.9230 C   0  0  0  0  0  0  0  0  0  0  0  0
   -9.5010   74.5070   21.6840 C   0  0  0  0  0  0  0  0  0  0  0  0
  -10.5510   74.5290   20.7770 C   0  0  0  0  0  0  0  0  0  0  0  0
  -11.4330   73.4660   20.7120 O   0  0  0  0  0  0  0  0  0  0  0  0
   -9.9090   78.7800   23.4760 N   0  0  0  0  0  0  0  0  0  0  0  0
  -10.3560   78.6690   24.8680 C   0  0  2  0  0  0  0  0  0  0  0  0
  -10.4820   77.2020   25.2360 C   0  0  0  0  0  0  0  0  0  0  0  0
  -11.4580   76.5350   24.8700 O   0  0  0  0  0  0  0  0  0  0  0  0
  -11.6970   79.3640   25.0700 C   0  0  0  0  0  0  0  0  0  0  0  0
  -12.1940   79.3520   26.5230 C   0  0  0  0  0  0  0  0  0  0  0  0
  -13.5550   80.0030   26.6830 C   0  0  0  0  0  0  0  0  0  0  0  0
  -14.1850   80.4130   25.7030 O   0  0  0  0  0  0  0  0  0  0  0  0
  -14.0380   80.0590   27.9170 N   0  0  0  0  0  0  0  0  0  0  0  0
   -9.4880   76.7020   25.9670 N   0  0  0  0  0  0  0  0  0  0  0  0
   -9.4720   75.2970   26.3430 C   0  0  2  0  0  0  0  0  0  0  0  0
  -10.0760   75.0250   27.7010 C   0  0  0  0  0  0  0  0  0  0  0  0
  -10.4910   73.8900   27.9540 O   0  0  0  0  0  0  0  0  0  0  0  0
   -8.0410   74.7560   26.3640 C   0  0  0  0  0  0  0  0  0  0  0  0
  -10.1820   76.0390   28.5570 N   0  0  0  0  0  0  0  0  0  0  0  0
  -10.7000   75.8670   29.8940 C   0  0  0  0  0  0  0  0  0  0  0  0
  -12.1600   76.2630   30.0400 C   0  0  0  0  0  0  0  0  0  0  0  0
  -12.9050   76.4370   29.0710 O   0  0  0  0  0  0  0  0  0  0  0  0
  -12.5790   76.3230   31.3040 N   0  0  0  0  0  0  0  0  0  0  0  0
  -13.8500   76.9100   31.7000 C   0  0  2  0  0  0  0  0  0  0  0  0
  -13.7190   78.4180   31.8580 C   0  0  0  0  0  0  0  0  0  0  0  0
  -14.6570   79.1670   31.5520 O   0  0  0  0  0  0  0  0  0  0  0  0
  -14.2760   76.2920   33.0190 C   0  0  0  0  0  0  0  0  0  0  0  0
  -13.1580   76.3050   33.8990 O   0  0  0  0  0  0  0  0  0  0  0  0
  -12.5560   78.8570   32.3330 N   0  0  0  0  0  0  0  0  0  0  0  0
  -12.2060   80.2660   32.3800 C   0  0  2  0  0  0  0  0  0  0  0  0
  -12.1770   80.8590   30.9770 C   0  0  0  0  0  0  0  0  0  0  0  0
  -11.5760   80.2580   30.0710 O   0  0  0  0  0  0  0  0  0  0  0  0
  -10.8270   80.4270   33.0160 C   0  0  2  0  0  0  0  0  0  0  0  0
  -10.9030   80.1540   34.4180 O   0  0  0  0  0  0  0  0  0  0  0  0
  -10.2340   81.8190   32.7450 C   0  0  0  0  0  0  0  0  0  0  0  0
   -2.3050   79.7440   30.0380 N   0  0  0  0  0  0  0  0  0  0  0  0
   -2.8350   78.4100   30.3220 C   0  0  2  0  0  0  0  0  0  0  0  0
   -4.3040   78.2650   29.9100 C   0  0  0  0  0  0  0  0  0  0  0  0
   -5.1220   79.1540   30.1480 O   0  0  0  0  0  0  0  0  0  0  0  0
   -2.6820   78.0960   31.8100 C   0  0  0  0  0  0  0  0  0  0  0  0
   -2.9570   76.6600   32.1470 C   0  0  0  0  0  0  0  0  0  0  0  0
   -2.1060   75.6490   31.7020 C   0  0  0  0  0  0  0  0  0  0  0  0
   -4.0980   76.3070   32.8740 C   0  0  0  0  0  0  0  0  0  0  0  0
   -2.3670   74.3060   32.0050 C   0  0  0  0  0  0  0  0  0  0  0  0
   -4.3690   74.9730   33.1840 C   0  0  0  0  0  0  0  0  0  0  0  0
   -3.5030   73.9710   32.7460 C   0  0  0  0  0  0  0  0  0  0  0  0
   -4.6240   77.1490   29.2540 N   0  0  0  0  0  0  0  0  0  0  0  0
   -5.9340   76.8390   28.6770 C   0  0  2  0  0  0  0  0  0  0  0  0
   -6.4210   77.8930   27.6950 C   0  0  0  0  0  0  0  0  0  0  0  0
   -7.6030   77.8740   27.3010 O   0  0  0  0  0  0  0  0  0  0  0  0
   -7.0010   76.5960   29.7460 C   0  0  0  0  0  0  0  0  0  0  0  0
   -6.8010   75.2820   30.4680 C   0  0  0  0  0  0  0  0  0  0  0  0
   -6.3170   74.3130   29.8810 O   0  0  0  0  0  0  0  0  0  0  0  0
   -7.1970   75.2290   31.7380 N   0  0  0  0  0  0  0  0  0  0  0  0
   -4.8850   79.1970   24.2360 N   0  0  0  0  0  0  0  0  0  0  0  0
   -3.8050   78.8590   23.3130 C   0  0  2  0  0  0  0  0  0  0  0  0
   -4.0240   79.4750   21.9340 C   0  0  0  0  0  0  0  0  0  0  0  0
   -5.1610   79.6220   21.4710 O   0  0  0  0  0  0  0  0  0  0  0  0
   -3.6600   77.3400   23.1780 C   0  0  0  0  0  0  0  0  0  0  0  0
   -3.3370   76.6310   24.4650 C   0  0  0  0  0  0  0  0  0  0  0  0
   -2.2630   77.0420   25.2450 C   0  0  0  0  0  0  0  0  0  0  0  0
   -4.0870   75.5250   24.8900 C   0  0  0  0  0  0  0  0  0  0  0  0
   -1.9500   76.3760   26.4350 C   0  0  0  0  0  0  0  0  0  0  0  0
   -3.7800   74.8500   26.0790 C   0  0  0  0  0  0  0  0  0  0  0  0
   -2.7110   75.2810   26.8500 C   0  0  0  0  0  0  0  0  0  0  0  0
   -2.3800   74.6400   28.0290 O   0  0  0  0  0  0  0  0  0  0  0  0
  2  1  1  6
  3  2  1  0
  4  3  2  0
  5  2  1  0
  6  5  1  0
  7  6  1  0
  8  7  1  0
  9  8  1  0
 11 10  1  6
 12 11  1  0
 13 12  2  0
 14 11  1  0
 15 14  1  0
 16 15  2  0
 17 15  1  0
 18 16  1  0
 19 17  2  0
 20 19  1  0
 20 18  2  0
 21 20  1  0
 23 22  1  6
 24 23  1  0
 25 24  2  0
 26 23  1  0
 27 26  1  0
 28 27  1  0
 29 28  1  0
 30 29  1  0
 31 30  1  0
 32 30  2  0
 33 24  1  0
 34 33  1  0
 35 34  1  0
 36 35  2  0
 34 37  1  1
 38 37  1  0
 39 38  1  0
 40 38  1  0
 41 35  1  0
 42 41  1  0
 43 42  1  0
 44 43  2  0
 42 45  1  1
 46 45  1  0
 47 46  2  0
 48 46  1  0
 49 47  1  0
 50 48  2  0
 51 50  1  0
 51 49  2  0
 52 43  1  0
 53 52  1  0
 54 53  1  0
 55 54  2  0
 53 56  1  6
 57 56  1  0
 58 57  1  0
 59 58  1  0
 60 59  1  0
 61 60  1  0
 62 60  2  0
 63 54  1  0
 64 63  1  0
 65 64  1  0
 66 65  2  0
 64 67  1  6
 68 67  1  0
 69 68  1  0
 70 69  1  0
 71 70  1  0
 73 72  1  1
 74 73  1  0
 75 74  2  0
 76 73  1  0
 77 76  1  0
 78 77  2  0
 79 77  1  0
 80 78  1  0
 81 79  2  0
 82 81  1  0
 82 80  2  0
 83 82  1  0
 84 74  1  0
 85 84  1  0
 86 85  1  0
 87 86  2  0
 85 88  1  6
 89 88  1  0
 90 89  1  0
 91 90  2  0
 92 90  1  0
 93 86  1  0
 94 93  1  0
 95 94  1  0
 96 95  2  0
 94 97  1  1
 98 95  1  0
 99 98  1  0
100 99  1  0
101100  2  0
102100  1  0
103102  1  0
104103  1  0
105104  2  0
103106  1  1
107106  1  0
108104  1  0
109108  1  6
110109  1  0
111110  2  0
112109  1  0
113112  1  0
112114  1  1
116115  1  1
117116  1  0
118117  2  0
119116  1  0
120119  1  0
121120  2  0
122120  1  0
123121  1  0
124122  2  0
125123  2  0
125124  1  0
126117  1  0
127126  1  0
128127  1  0
129128  2  0
127130  1  1
131130  1  0
132131  2  0
133131  1  0
135134  1  1
136135  1  0
137136  2  0
138135  1  0
139138  1  0
140139  2  0
141139  1  0
142140  1  0
143141  2  0
144143  1  0
144142  2  0
145144  1  0
M  END
$$$$
