
     RDKit          3D

134131  0  0  0  0  0  0  0  0999 V2000
  207.8260  218.8340  217.2090 N   0  0  0  0  0  0  0  0  0  0  0  0
  207.2020  219.7200  218.1780 C   0  0  2  0  0  0  0  0  0  0  0  0
  206.5370  218.9680  219.3200 C   0  0  0  0  0  0  0  0  0  0  0  0
  205.9880  219.6040  220.2230 O   0  0  0  0  0  0  0  0  0  0  0  0
  206.1700  220.6150  217.4890 C   0  0  0  0  0  0  0  0  0  0  0  0
  206.7630  221.8180  216.7820 C   0  0  0  0  0  0  0  0  0  0  0  0
  205.9230  222.2730  215.6060 C   0  0  0  0  0  0  0  0  0  0  0  0
  206.5060  222.6390  214.5640 O   0  0  0  0  0  0  0  0  0  0  0  0
  204.6800  222.2660  215.7240 O   0  0  0  0  0  0  0  0  0  0  0  0
  206.5680  217.6380  219.3040 N   0  0  0  0  0  0  0  0  0  0  0  0
  205.9050  216.8590  220.3440 C   0  0  2  0  0  0  0  0  0  0  0  0
  206.9360  216.0310  221.0980 C   0  0  0  0  0  0  0  0  0  0  0  0
  206.7580  215.7270  222.2820 O   0  0  0  0  0  0  0  0  0  0  0  0
  204.8050  215.9620  219.7490 C   0  0  0  0  0  0  0  0  0  0  0  0
  203.9770  215.3330  220.8560 C   0  0  0  0  0  0  0  0  0  0  0  0
  203.9240  216.7570  218.8050 C   0  0  0  0  0  0  0  0  0  0  0  0
  209.5800  218.7870  222.9990 N   0  0  0  0  0  0  0  0  0  0  0  0
  208.9690  219.8250  223.8140 C   0  0  2  0  0  0  0  0  0  0  0  0
  209.6120  219.8580  225.1920 C   0  0  0  0  0  0  0  0  0  0  0  0
  209.9310  218.8170  225.7740 O   0  0  0  0  0  0  0  0  0  0  0  0
  207.4660  219.5910  223.9350 C   0  0  0  0  0  0  0  0  0  0  0  0
  209.8180  221.0680  225.7100 N   0  0  0  0  0  0  0  0  0  0  0  0
  210.5230  221.2130  226.9770 C   0  0  2  0  0  0  0  0  0  0  0  0
  209.6860  220.7060  228.1460 C   0  0  0  0  0  0  0  0  0  0  0  0
  210.2320  220.2020  229.1330 O   0  0  0  0  0  0  0  0  0  0  0  0
  210.9210  222.6720  227.1910 C   0  0  2  0  0  0  0  0  0  0  0  0
  209.7540  223.5000  227.1290 O   0  0  0  0  0  0  0  0  0  0  0  0
  211.8970  223.1120  226.1210 C   0  0  0  0  0  0  0  0  0  0  0  0
  208.3640  220.8300  228.0570 N   0  0  0  0  0  0  0  0  0  0  0  0
  207.4660  220.4650  229.1440 C   0  0  2  0  0  0  0  0  0  0  0  0
  206.4640  219.4230  228.6660 C   0  0  0  0  0  0  0  0  0  0  0  0
  205.8650  219.5770  227.5970 O   0  0  0  0  0  0  0  0  0  0  0  0
  206.7300  221.6960  229.6790 C   0  0  0  0  0  0  0  0  0  0  0  0
  207.3850  222.3430  230.8890 C   0  0  0  0  0  0  0  0  0  0  0  0
  208.7490  222.8980  230.5450 C   0  0  0  0  0  0  0  0  0  0  0  0
  209.4070  223.5100  231.6940 N   0  0  0  0  0  0  0  0  0  0  0  0
  209.5580  224.8180  231.8540 C   0  0  0  0  0  0  0  0  0  0  0  0
  210.1760  225.2900  232.9270 N   0  0  0  0  0  0  0  0  0  0  0  0
  209.0980  225.6550  230.9370 N   0  0  0  0  0  0  0  0  0  0  0  0
  206.2900  218.3670  229.4560 N   0  0  0  0  0  0  0  0  0  0  0  0
  205.2570  217.3660  229.2390 C   0  0  2  0  0  0  0  0  0  0  0  0
  204.2000  217.4350  230.3320 C   0  0  0  0  0  0  0  0  0  0  0  0
  204.4950  217.7390  231.4900 O   0  0  0  0  0  0  0  0  0  0  0  0
  205.8320  215.9500  229.1940 C   0  0  0  0  0  0  0  0  0  0  0  0
  206.4580  215.5770  227.8850 C   0  0  0  0  0  0  0  0  0  0  0  0
  205.6680  215.1560  226.8340 C   0  0  0  0  0  0  0  0  0  0  0  0
  207.8240  215.6140  227.7120 C   0  0  0  0  0  0  0  0  0  0  0  0
  206.2240  214.7970  225.6330 C   0  0  0  0  0  0  0  0  0  0  0  0
  208.3840  215.2570  226.5090 C   0  0  0  0  0  0  0  0  0  0  0  0
  207.5820  214.8470  225.4700 C   0  0  0  0  0  0  0  0  0  0  0  0
  202.9650  217.1360  229.9440 N   0  0  0  0  0  0  0  0  0  0  0  0
  201.8410  217.1610  230.8630 C   0  0  2  0  0  0  0  0  0  0  0  0
  201.8930  215.9750  231.8190 C   0  0  0  0  0  0  0  0  0  0  0  0
  202.4600  214.9240  231.5170 O   0  0  0  0  0  0  0  0  0  0  0  0
  200.5240  217.1430  230.0920 C   0  0  0  0  0  0  0  0  0  0  0  0
  201.2810  216.1520  232.9860 N   0  0  0  0  0  0  0  0  0  0  0  0
  201.1870  215.0640  233.9430 C   0  0  2  0  0  0  0  0  0  0  0  0
  200.2910  213.9620  233.3840 C   0  0  0  0  0  0  0  0  0  0  0  0
  199.6460  214.1140  232.3430 O   0  0  0  0  0  0  0  0  0  0  0  0
  200.6650  215.5750  235.2810 C   0  0  0  0  0  0  0  0  0  0  0  0
  200.6810  214.5440  236.2500 O   0  0  0  0  0  0  0  0  0  0  0  0
  196.2340  214.4200  233.1530 N   0  0  0  0  0  0  0  0  0  0  0  0
  195.7780  215.4150  232.1870 C   0  0  2  0  0  0  0  0  0  0  0  0
  196.5910  215.3010  230.9060 C   0  0  0  0  0  0  0  0  0  0  0  0
  197.1110  216.2840  230.3770 O   0  0  0  0  0  0  0  0  0  0  0  0
  195.8640  216.8220  232.7650 C   0  0  0  0  0  0  0  0  0  0  0  0
  196.7100  214.0760  230.4010 N   0  0  0  0  0  0  0  0  0  0  0  0
  197.5910  213.7860  229.2780 C   0  0  2  0  0  0  0  0  0  0  0  0
  197.2520  214.6490  228.0730 C   0  0  0  0  0  0  0  0  0  0  0  0
  196.0810  214.8300  227.7350 O   0  0  0  0  0  0  0  0  0  0  0  0
  197.4770  212.3120  228.9060 C   0  0  0  0  0  0  0  0  0  0  0  0
  196.0750  211.8010  228.9450 C   0  0  0  0  0  0  0  0  0  0  0  0
  195.4070  211.3250  230.0320 C   0  0  0  0  0  0  0  0  0  0  0  0
  195.1640  211.7110  227.8450 C   0  0  0  0  0  0  0  0  0  0  0  0
  194.1380  210.9460  229.6790 N   0  0  0  0  0  0  0  0  0  0  0  0
  193.9640  211.1740  228.3400 C   0  0  0  0  0  0  0  0  0  0  0  0
  195.2480  212.0350  226.4900 C   0  0  0  0  0  0  0  0  0  0  0  0
  192.8590  210.9530  227.5310 C   0  0  0  0  0  0  0  0  0  0  0  0
  194.1500  211.8140  225.6890 C   0  0  0  0  0  0  0  0  0  0  0  0
  192.9710  211.2800  226.2100 C   0  0  0  0  0  0  0  0  0  0  0  0
  198.2810  215.1840  227.4220 N   0  0  0  0  0  0  0  0  0  0  0  0
  198.0410  216.0210  226.2570 C   0  0  2  0  0  0  0  0  0  0  0  0
  197.5820  215.1730  225.0770 C   0  0  0  0  0  0  0  0  0  0  0  0
  198.0490  214.0490  224.8760 O   0  0  0  0  0  0  0  0  0  0  0  0
  199.2980  216.8020  225.8860 C   0  0  0  0  0  0  0  0  0  0  0  0
  199.2060  217.4300  224.5120 C   0  0  0  0  0  0  0  0  0  0  0  0
  198.1780  217.9980  224.1470 O   0  0  0  0  0  0  0  0  0  0  0  0
  200.2810  217.3270  223.7400 N   0  0  0  0  0  0  0  0  0  0  0  0
  196.9070  215.6390  221.0580 N   0  0  0  0  0  0  0  0  0  0  0  0
  197.1130  216.4780  219.8860 C   0  0  2  0  0  0  0  0  0  0  0  0
  196.6680  215.7650  218.6170 C   0  0  0  0  0  0  0  0  0  0  0  0
  196.9250  214.5720  218.4410 O   0  0  0  0  0  0  0  0  0  0  0  0
  198.5820  216.8810  219.7560 C   0  0  0  0  0  0  0  0  0  0  0  0
  198.8560  217.8610  218.6320 C   0  0  0  0  0  0  0  0  0  0  0  0
  200.1380  218.6340  218.8770 C   0  0  0  0  0  0  0  0  0  0  0  0
  200.1960  219.8880  218.0230 C   0  0  0  0  0  0  0  0  0  0  0  0
  200.2680  219.5720  216.5710 N   0  0  0  0  0  0  0  0  0  0  0  0
  200.5200  212.4670  225.0610 N   0  0  0  0  0  0  0  0  0  0  0  0
  201.8350  212.6770  225.6480 C   0  0  2  0  0  0  0  0  0  0  0  0
  201.7080  212.9010  227.1430 C   0  0  0  0  0  0  0  0  0  0  0  0
  200.8400  213.6600  227.5880 O   0  0  0  0  0  0  0  0  0  0  0  0
  202.5500  213.8640  225.0000 C   0  0  0  0  0  0  0  0  0  0  0  0
  201.7140  215.0050  224.9700 O   0  0  0  0  0  0  0  0  0  0  0  0
  205.6940  219.5980  240.1070 N   0  0  0  0  0  0  0  0  0  0  0  0
  204.8240  219.8600  238.9690 C   0  0  2  0  0  0  0  0  0  0  0  0
  204.1010  218.6220  238.4600 C   0  0  0  0  0  0  0  0  0  0  0  0
  203.1970  218.7600  237.6310 O   0  0  0  0  0  0  0  0  0  0  0  0
  205.6340  220.4640  237.8270 C   0  0  0  0  0  0  0  0  0  0  0  0
  206.5020  221.6060  238.2800 C   0  0  0  0  0  0  0  0  0  0  0  0
  207.5730  221.8400  237.7280 O   0  0  0  0  0  0  0  0  0  0  0  0
  206.0460  222.3290  239.2940 N   0  0  0  0  0  0  0  0  0  0  0  0
  204.4740  217.4270  238.9130 N   0  0  0  0  0  0  0  0  0  0  0  0
  203.9200  216.1830  238.3920 C   0  0  2  0  0  0  0  0  0  0  0  0
  203.0730  215.5090  239.4620 C   0  0  0  0  0  0  0  0  0  0  0  0
  203.5610  215.2260  240.5610 O   0  0  0  0  0  0  0  0  0  0  0  0
  205.0360  215.2550  237.9170 C   0  0  0  0  0  0  0  0  0  0  0  0
  205.7370  215.7700  236.6870 C   0  0  0  0  0  0  0  0  0  0  0  0
  205.0330  216.4420  235.7030 C   0  0  0  0  0  0  0  0  0  0  0  0
  207.0990  215.6000  236.5160 C   0  0  0  0  0  0  0  0  0  0  0  0
  205.6620  216.9200  234.5780 C   0  0  0  0  0  0  0  0  0  0  0  0
  207.7380  216.0760  235.3930 C   0  0  0  0  0  0  0  0  0  0  0  0
  207.0130  216.7360  234.4270 C   0  0  0  0  0  0  0  0  0  0  0  0
  207.6390  217.2160  233.3020 O   0  0  0  0  0  0  0  0  0  0  0  0
  188.9840  211.5570  229.7840 N   0  0  0  0  0  0  0  0  0  0  0  0
  189.8860  212.4660  230.4790 C   0  0  2  0  0  0  0  0  0  0  0  0
  189.1240  213.1430  231.6080 C   0  0  0  0  0  0  0  0  0  0  0  0
  188.1130  213.8080  231.3640 O   0  0  0  0  0  0  0  0  0  0  0  0
  190.4480  213.5040  229.5090 C   0  0  0  0  0  0  0  0  0  0  0  0
  191.3870  214.5120  230.1320 C   0  0  0  0  0  0  0  0  0  0  0  0
  191.8990  215.4800  229.0790 C   0  0  0  0  0  0  0  0  0  0  0  0
  192.8260  216.4550  229.6390 N   0  0  0  0  0  0  0  0  0  0  0  0
  193.4440  217.3860  228.9240 C   0  0  0  0  0  0  0  0  0  0  0  0
  194.2750  218.2320  229.5120 N   0  0  0  0  0  0  0  0  0  0  0  0
  193.2330  217.4660  227.6190 N   0  0  0  0  0  0  0  0  0  0  0  0
  2  1  1  6
  3  2  1  0
  4  3  2  0
  5  2  1  0
  6  5  1  0
  7  6  1  0
  8  7  2  0
  9  7  1  0
 10  3  1  0
 11 10  1  6
 12 11  1  0
 13 12  2  0
 14 11  1  0
 15 14  1  0
 16 14  1  0
 18 17  1  0
 19 18  1  0
 20 19  2  0
 18 21  1  1
 22 19  1  0
 23 22  1  6
 24 23  1  0
 25 24  2  0
 26 23  1  0
 27 26  1  0
 26 28  1  6
 29 24  1  0
 30 29  1  0
 31 30  1  0
 32 31  2  0
 30 33  1  6
 34 33  1  0
 35 34  1  0
 36 35  1  0
 37 36  1  0
 38 37  1  0
 39 37  2  0
 40 31  1  0
 41 40  1  0
 42 41  1  0
 43 42  2  0
 41 44  1  1
 45 44  1  0
 46 45  2  0
 47 45  1  0
 48 46  1  0
 49 47  2  0
 50 48  2  0
 50 49  1  0
 51 42  1  0
 52 51  1  0
 53 52  1  0
 54 53  2  0
 52 55  1  6
 56 53  1  0
 57 56  1  0
 58 57  1  0
 59 58  2  0
 57 60  1  1
 61 60  1  0
 63 62  1  0
 64 63  1  0
 65 64  2  0
 63 66  1  1
 67 64  1  0
 68 67  1  0
 69 68  1  0
 70 69  2  0
 68 71  1  6
 72 71  1  0
 73 72  2  0
 74 72  1  0
 75 73  1  0
 76 74  2  0
 76 75  1  0
 77 74  1  0
 78 76  1  0
 79 77  2  0
 80 79  1  0
 80 78  2  0
 81 69  1  0
 82 81  1  0
 83 82  1  0
 84 83  2  0
 82 85  1  6
 86 85  1  0
 87 86  2  0
 88 86  1  0
 90 89  1  1
 91 90  1  0
 92 91  2  0
 93 90  1  0
 94 93  1  0
 95 94  1  0
 96 95  1  0
 97 96  1  0
 99 98  1  6
100 99  1  0
101100  2  0
102 99  1  0
103102  1  0
105104  1  1
106105  1  0
107106  2  0
108105  1  0
109108  1  0
110109  2  0
111109  1  0
112106  1  0
113112  1  0
114113  1  0
115114  2  0
113116  1  1
117116  1  0
118117  2  0
119117  1  0
120118  1  0
121119  2  0
122120  2  0
122121  1  0
123122  1  0
125124  1  6
126125  1  0
127126  2  0
128125  1  0
129128  1  0
130129  1  0
131130  1  0
132131  1  0
133132  1  0
134132  2  0
M  END
$$$$
