
     RDKit          3D

113113  0  0  0  0  0  0  0  0999 V2000
    0.3350   10.8440    5.9820 N   0  0  0  0  0  0  0  0  0  0  0  0
    1.4930   11.6350    5.5930 C   0  0  2  0  0  0  0  0  0  0  0  0
    2.3860   10.9160    4.5900 C   0  0  0  0  0  0  0  0  0  0  0  0
    3.5000   11.3790    4.3220 O   0  0  0  0  0  0  0  0  0  0  0  0
    2.2990   12.0240    6.8340 C   0  0  0  0  0  0  0  0  0  0  0  0
    1.4600   12.6630    7.9180 C   0  0  0  0  0  0  0  0  0  0  0  0
    1.1120   14.0060    7.8540 C   0  0  0  0  0  0  0  0  0  0  0  0
    1.0130   11.9210    9.0040 C   0  0  0  0  0  0  0  0  0  0  0  0
    0.3430   14.5920    8.8400 C   0  0  0  0  0  0  0  0  0  0  0  0
    0.2440   12.4990    9.9960 C   0  0  0  0  0  0  0  0  0  0  0  0
   -0.0870   13.8340    9.9080 C   0  0  0  0  0  0  0  0  0  0  0  0
   -0.8530   14.4140   10.8920 O   0  0  0  0  0  0  0  0  0  0  0  0
    4.4400   16.1060   -2.0510 N   0  0  0  0  0  0  0  0  0  0  0  0
    4.3150   16.9510   -3.2370 C   0  0  2  0  0  0  0  0  0  0  0  0
    5.5130   17.8820   -3.2620 C   0  0  0  0  0  0  0  0  0  0  0  0
    5.7400   18.6220   -2.2990 O   0  0  0  0  0  0  0  0  0  0  0  0
    3.0070   17.7440   -3.2010 C   0  0  0  0  0  0  0  0  0  0  0  0
    2.9630   18.8320   -2.1460 C   0  0  0  0  0  0  0  0  0  0  0  0
    2.6200   18.5440   -0.8340 C   0  0  0  0  0  0  0  0  0  0  0  0
    3.1870   20.1620   -2.4860 C   0  0  0  0  0  0  0  0  0  0  0  0
    2.5570   19.5340    0.1260 C   0  0  0  0  0  0  0  0  0  0  0  0
    3.1190   21.1660   -1.5300 C   0  0  0  0  0  0  0  0  0  0  0  0
    2.8020   20.8430   -0.2250 C   0  0  0  0  0  0  0  0  0  0  0  0
    2.7280   21.8240    0.7390 O   0  0  0  0  0  0  0  0  0  0  0  0
    7.3450   18.2340    0.6470 N   0  0  0  0  0  0  0  0  0  0  0  0
    6.4880   18.4740    1.8000 C   0  0  2  0  0  0  0  0  0  0  0  0
    5.2980   17.5230    1.7880 C   0  0  0  0  0  0  0  0  0  0  0  0
    4.6990   17.2730    0.7380 O   0  0  0  0  0  0  0  0  0  0  0  0
    5.9980   19.9240    1.8360 C   0  0  0  0  0  0  0  0  0  0  0  0
    7.0870   20.9350    2.1620 C   0  0  0  0  0  0  0  0  0  0  0  0
    8.0060   20.4720    3.2810 C   0  0  0  0  0  0  0  0  0  0  0  0
    7.6710   19.5680    4.0490 O   0  0  0  0  0  0  0  0  0  0  0  0
    9.1840   21.0810    3.3650 N   0  0  0  0  0  0  0  0  0  0  0  0
    4.9570   17.0060    2.9650 N   0  0  0  0  0  0  0  0  0  0  0  0
    3.8670   16.0500    3.0990 C   0  0  2  0  0  0  0  0  0  0  0  0
    2.5120   16.7500    3.0920 C   0  0  0  0  0  0  0  0  0  0  0  0
    2.3640   17.8580    3.6150 O   0  0  0  0  0  0  0  0  0  0  0  0
    4.0270   15.2510    4.3940 C   0  0  0  0  0  0  0  0  0  0  0  0
    2.9630   14.3320    4.5770 O   0  0  0  0  0  0  0  0  0  0  0  0
    1.5270   16.0990    2.4770 N   0  0  0  0  0  0  0  0  0  0  0  0
    0.1390   16.5120    2.6260 C   0  0  2  0  0  0  0  0  0  0  0  0
   -0.3520   16.2030    4.0360 C   0  0  0  0  0  0  0  0  0  0  0  0
    0.0510   15.2140    4.6560 O   0  0  0  0  0  0  0  0  0  0  0  0
   -0.7560   15.7960    1.6070 C   0  0  0  0  0  0  0  0  0  0  0  0
   -0.6690   16.2820    0.1680 C   0  0  0  0  0  0  0  0  0  0  0  0
   -0.4010   17.6060   -0.1320 C   0  0  0  0  0  0  0  0  0  0  0  0
   -0.8540   15.4020   -0.8920 C   0  0  0  0  0  0  0  0  0  0  0  0
   -0.3320   18.0410   -1.4490 C   0  0  0  0  0  0  0  0  0  0  0  0
   -0.7790   15.8320   -2.2110 C   0  0  0  0  0  0  0  0  0  0  0  0
   -0.5150   17.1540   -2.4800 C   0  0  0  0  0  0  0  0  0  0  0  0
   -0.4370   17.6020   -3.7790 O   0  0  0  0  0  0  0  0  0  0  0  0
   -1.2360   17.0560    4.5430 N   0  0  0  0  0  0  0  0  0  0  0  0
   -1.8310   16.8130    5.8420 C   0  0  0  0  0  0  0  0  0  0  0  0
   -3.1480   16.0740    5.7340 C   0  0  0  0  0  0  0  0  0  0  0  0
   -4.1140   16.4030    6.4290 O   0  0  0  0  0  0  0  0  0  0  0  0
   -3.1930   15.0690    4.8620 N   0  0  0  0  0  0  0  0  0  0  0  0
   -4.4350   14.3680    4.5550 C   0  0  2  0  0  0  0  0  0  0  0  0
   -5.1370   13.8980    5.8190 C   0  0  0  0  0  0  0  0  0  0  0  0
   -4.6200   13.0540    6.5550 O   0  0  0  0  0  0  0  0  0  0  0  0
   -4.1430   13.1800    3.6380 C   0  0  0  0  0  0  0  0  0  0  0  0
   -4.0590   13.5450    2.1850 C   0  0  0  0  0  0  0  0  0  0  0  0
   -4.3520   14.8320    1.7620 C   0  0  0  0  0  0  0  0  0  0  0  0
   -3.6770   12.6050    1.2440 C   0  0  0  0  0  0  0  0  0  0  0  0
   -4.2730   15.1710    0.4230 C   0  0  0  0  0  0  0  0  0  0  0  0
   -3.5930   12.9390   -0.0950 C   0  0  0  0  0  0  0  0  0  0  0  0
   -3.8930   14.2230   -0.5060 C   0  0  0  0  0  0  0  0  0  0  0  0
   -6.3310   14.4430    6.0590 N   0  0  0  0  0  0  0  0  0  0  0  0
   -7.1390   14.0890    7.2050 C   0  0  2  0  0  0  0  0  0  0  0  0
   -8.5930   14.2190    6.7660 C   0  0  0  0  0  0  0  0  0  0  0  0
   -8.9600   15.2490    6.1780 O   0  0  0  0  0  0  0  0  0  0  0  0
   -6.8390   14.9830    8.4100 C   0  0  0  0  0  0  0  0  0  0  0  0
   -7.5790   14.6180    9.6810 C   0  0  0  0  0  0  0  0  0  0  0  0
   -7.1640   15.4850   10.8610 C   0  0  0  0  0  0  0  0  0  0  0  0
   -6.3180   16.3730   10.7300 O   0  0  0  0  0  0  0  0  0  0  0  0
   -7.7600   15.2300   12.0210 N   0  0  0  0  0  0  0  0  0  0  0  0
  -11.6470   14.8100    7.7970 N   0  0  0  0  0  0  0  0  0  0  0  0
  -12.6450   15.8010    8.1850 C   0  0  2  0  0  0  0  0  0  0  0  0
  -12.4920   17.1260    7.4470 C   0  0  0  0  0  0  0  0  0  0  0  0
  -13.3730   17.9860    7.5660 O   0  0  0  0  0  0  0  0  0  0  0  0
  -12.5890   16.0470    9.6960 C   0  0  2  0  0  0  0  0  0  0  0  0
  -11.2310   16.2670   10.0980 O   0  0  0  0  0  0  0  0  0  0  0  0
  -13.1500   14.8480   10.4540 C   0  0  0  0  0  0  0  0  0  0  0  0
  -11.4120   17.3030    6.6890 N   0  0  0  0  0  0  0  0  0  0  0  0
  -11.1790   18.5470    5.9680 C   0  0  2  0  0  0  0  0  0  0  0  0
  -12.2040   18.7280    4.8530 C   0  0  0  0  0  0  0  0  0  0  0  0
  -12.7440   17.7590    4.3080 O   0  0  0  0  0  0  0  0  0  0  0  0
   -9.7690   18.5600    5.3790 C   0  0  0  0  0  0  0  0  0  0  0  0
   -8.6920   18.6110    6.4450 C   0  0  0  0  0  0  0  0  0  0  0  0
   -8.8050   19.3490    7.4270 O   0  0  0  0  0  0  0  0  0  0  0  0
   -7.6450   17.8100    6.2660 N   0  0  0  0  0  0  0  0  0  0  0  0
  -12.4630   19.9880    4.5090 N   0  0  0  0  0  0  0  0  0  0  0  0
  -13.3650   20.2670    3.4050 C   0  0  0  0  0  0  0  0  0  0  0  0
  -12.8730   19.6280    2.1180 C   0  0  0  0  0  0  0  0  0  0  0  0
  -11.6730   19.5940    1.8370 O   0  0  0  0  0  0  0  0  0  0  0  0
  -13.8200   19.1470    1.3150 N   0  0  0  0  0  0  0  0  0  0  0  0
  -13.5470   18.3210    0.1410 C   0  0  2  0  0  0  0  0  0  0  0  0
  -12.3360   18.8040   -0.6470 C   0  0  0  0  0  0  0  0  0  0  0  0
  -11.5460   17.9920   -1.1400 O   0  0  0  0  0  0  0  0  0  0  0  0
  -14.7830   18.2570   -0.7710 C   0  0  0  0  0  0  0  0  0  0  0  0
  -14.4460   17.5250   -2.0640 C   0  0  0  0  0  0  0  0  0  0  0  0
  -15.9300   17.5610   -0.0560 C   0  0  0  0  0  0  0  0  0  0  0  0
   -9.5880   19.8310    0.1780 N   0  0  0  0  0  0  0  0  0  0  0  0
   -8.3100   19.4650    0.7680 C   0  0  2  0  0  0  0  0  0  0  0  0
   -8.1920   17.9650    1.0060 C   0  0  0  0  0  0  0  0  0  0  0  0
   -7.3190   17.5310    1.7630 O   0  0  0  0  0  0  0  0  0  0  0  0
   -8.1210   20.2390    2.0720 C   0  0  0  0  0  0  0  0  0  0  0  0
   -8.0380   21.7240    1.8180 C   0  0  0  0  0  0  0  0  0  0  0  0
   -6.8500   22.3250    1.4330 C   0  0  0  0  0  0  0  0  0  0  0  0
   -9.1750   22.5170    1.9010 C   0  0  0  0  0  0  0  0  0  0  0  0
   -6.7890   23.6840    1.1790 C   0  0  0  0  0  0  0  0  0  0  0  0
   -9.1240   23.8730    1.6470 C   0  0  0  0  0  0  0  0  0  0  0  0
   -7.9290   24.4510    1.2870 C   0  0  0  0  0  0  0  0  0  0  0  0
   -7.8790   25.8020    1.0330 O   0  0  0  0  0  0  0  0  0  0  0  0
  2  1  1  1
  3  2  1  0
  4  3  2  0
  5  2  1  0
  6  5  1  0
  7  6  2  0
  8  6  1  0
  9  7  1  0
 10  8  2  0
 11 10  1  0
 11  9  2  0
 12 11  1  0
 14 13  1  1
 15 14  1  0
 16 15  2  0
 17 14  1  0
 18 17  1  0
 19 18  2  0
 20 18  1  0
 21 19  1  0
 22 20  2  0
 23 22  1  0
 23 21  2  0
 24 23  1  0
 26 25  1  6
 27 26  1  0
 28 27  2  0
 29 26  1  0
 30 29  1  0
 31 30  1  0
 32 31  2  0
 33 31  1  0
 34 27  1  0
 35 34  1  0
 36 35  1  0
 37 36  2  0
 35 38  1  1
 39 38  1  0
 40 36  1  0
 41 40  1  0
 42 41  1  0
 43 42  2  0
 41 44  1  6
 45 44  1  0
 46 45  2  0
 47 45  1  0
 48 46  1  0
 49 47  2  0
 50 49  1  0
 50 48  2  0
 51 50  1  0
 52 42  1  0
 53 52  1  0
 54 53  1  0
 55 54  2  0
 56 54  1  0
 57 56  1  0
 58 57  1  0
 59 58  2  0
 57 60  1  6
 61 60  1  0
 62 61  2  0
 63 61  1  0
 64 62  1  0
 65 63  2  0
 66 65  1  0
 66 64  2  0
 67 58  1  0
 68 67  1  0
 69 68  1  0
 70 69  2  0
 68 71  1  1
 72 71  1  0
 73 72  1  0
 74 73  2  0
 75 73  1  0
 77 76  1  6
 78 77  1  0
 79 78  2  0
 80 77  1  0
 81 80  1  0
 80 82  1  1
 83 78  1  0
 84 83  1  0
 85 84  1  0
 86 85  2  0
 84 87  1  6
 88 87  1  0
 89 88  2  0
 90 88  1  0
 91 85  1  0
 92 91  1  0
 93 92  1  0
 94 93  2  0
 95 93  1  0
 96 95  1  1
 97 96  1  0
 98 97  2  0
 99 96  1  0
100 99  1  0
101 99  1  0
103102  1  1
104103  1  0
105104  2  0
106103  1  0
107106  1  0
108107  2  0
109107  1  0
110108  1  0
111109  2  0
112111  1  0
112110  2  0
113112  1  0
M  END
$$$$
