
     RDKit          3D

147146  0  0  0  0  0  0  0  0999 V2000
    1.7560   24.9090   -8.0530 N   0  0  0  0  0  0  0  0  0  0  0  0
    2.6540   24.0060   -7.3400 C   0  0  2  0  0  0  0  0  0  0  0  0
    2.7880   22.6710   -8.0610 C   0  0  0  0  0  0  0  0  0  0  0  0
    3.8930   22.1420   -8.2170 O   0  0  0  0  0  0  0  0  0  0  0  0
    2.1560   23.7870   -5.9110 C   0  0  0  0  0  0  0  0  0  0  0  0
    2.4850   24.9120   -4.9510 C   0  0  0  0  0  0  0  0  0  0  0  0
    2.2390   24.4870   -3.5100 C   0  0  0  0  0  0  0  0  0  0  0  0
    0.7550   24.3040   -3.2320 C   0  0  0  0  0  0  0  0  0  0  0  0
    0.4970   24.0310   -1.7920 N   0  0  0  0  0  0  0  0  0  0  0  0
    5.8650   21.8120  -10.7580 N   0  0  0  0  0  0  0  0  0  0  0  0
    6.9870   21.0490  -10.1680 C   0  0  2  0  0  0  0  0  0  0  0  0
    6.6430   19.5760   -9.9900 C   0  0  0  0  0  0  0  0  0  0  0  0
    7.4280   18.8920   -9.3540 O   0  0  0  0  0  0  0  0  0  0  0  0
    7.2410   21.5850   -8.7660 C   0  0  0  0  0  0  0  0  0  0  0  0
    7.5320   23.0560   -8.7350 C   0  0  0  0  0  0  0  0  0  0  0  0
    8.5030   23.5850   -9.5490 C   0  0  0  0  0  0  0  0  0  0  0  0
    6.8600   23.9170   -7.8990 C   0  0  0  0  0  0  0  0  0  0  0  0
    8.8010   24.9320   -9.5510 C   0  0  0  0  0  0  0  0  0  0  0  0
    7.1490   25.2700   -7.8820 C   0  0  0  0  0  0  0  0  0  0  0  0
    8.1190   25.7800   -8.7160 C   0  0  0  0  0  0  0  0  0  0  0  0
    8.4380   27.0960   -8.7390 O   0  0  0  0  0  0  0  0  0  0  0  0
    6.2910   17.8340   -4.3360 N   0  0  0  0  0  0  0  0  0  0  0  0
    7.4780   18.6710   -4.4140 C   0  0  2  0  0  0  0  0  0  0  0  0
    7.0910   20.1410   -4.3160 C   0  0  0  0  0  0  0  0  0  0  0  0
    6.2370   20.6220   -5.0650 O   0  0  0  0  0  0  0  0  0  0  0  0
    8.2270   18.3930   -5.7140 C   0  0  0  0  0  0  0  0  0  0  0  0
    9.3600   19.3430   -5.9960 C   0  0  0  0  0  0  0  0  0  0  0  0
   10.0900   18.8940   -7.2390 C   0  0  0  0  0  0  0  0  0  0  0  0
   10.7000   17.5930   -7.0080 N   0  0  0  0  0  0  0  0  0  0  0  0
   11.8130   17.4110   -6.3090 C   0  0  0  0  0  0  0  0  0  0  0  0
   12.4280   18.4520   -5.7670 N   0  0  0  0  0  0  0  0  0  0  0  0
   12.3050   16.1900   -6.1450 N   0  0  0  0  0  0  0  0  0  0  0  0
    7.7120   20.8520   -3.3790 N   0  0  0  0  0  0  0  0  0  0  0  0
    7.3580   22.2370   -3.0870 C   0  0  2  0  0  0  0  0  0  0  0  0
    8.3720   23.2490   -3.5920 C   0  0  0  0  0  0  0  0  0  0  0  0
    7.9810   24.3110   -4.0820 O   0  0  0  0  0  0  0  0  0  0  0  0
    7.1740   22.4280   -1.5780 C   0  0  0  0  0  0  0  0  0  0  0  0
    6.9840   23.8750   -1.1240 C   0  0  0  0  0  0  0  0  0  0  0  0
    5.7430   24.4760   -1.7630 C   0  0  0  0  0  0  0  0  0  0  0  0
    6.9000   23.9460    0.3900 C   0  0  0  0  0  0  0  0  0  0  0  0
    9.6630   22.9540   -3.4760 N   0  0  0  0  0  0  0  0  0  0  0  0
   10.7210   23.8580   -3.9000 C   0  0  2  0  0  0  0  0  0  0  0  0
   11.3740   23.3220   -5.1660 C   0  0  0  0  0  0  0  0  0  0  0  0
   11.7390   22.1430   -5.2300 O   0  0  0  0  0  0  0  0  0  0  0  0
   11.7730   24.0300   -2.8020 C   0  0  0  0  0  0  0  0  0  0  0  0
   11.2390   24.6330   -1.5330 C   0  0  0  0  0  0  0  0  0  0  0  0
   10.8630   25.9660   -1.4880 C   0  0  0  0  0  0  0  0  0  0  0  0
   11.1320   23.8730   -0.3800 C   0  0  0  0  0  0  0  0  0  0  0  0
   10.3790   26.5250   -0.3220 C   0  0  0  0  0  0  0  0  0  0  0  0
   10.6490   24.4270    0.7900 C   0  0  0  0  0  0  0  0  0  0  0  0
   10.2720   25.7550    0.8180 C   0  0  0  0  0  0  0  0  0  0  0  0
   11.5170   24.1870   -6.1660 N   0  0  0  0  0  0  0  0  0  0  0  0
   12.2200   23.8320   -7.3890 C   0  0  2  0  0  0  0  0  0  0  0  0
   12.6930   25.1130   -8.0590 C   0  0  0  0  0  0  0  0  0  0  0  0
   12.0730   26.1690   -7.9120 O   0  0  0  0  0  0  0  0  0  0  0  0
   11.3360   23.0130   -8.3350 C   0  0  0  0  0  0  0  0  0  0  0  0
   12.1270   22.1550   -9.3060 C   0  0  0  0  0  0  0  0  0  0  0  0
   11.2470   21.1270   -9.9950 C   0  0  0  0  0  0  0  0  0  0  0  0
   12.0360   20.1500  -10.7400 N   0  0  0  0  0  0  0  0  0  0  0  0
   12.4490   20.3190  -11.9920 C   0  0  0  0  0  0  0  0  0  0  0  0
   12.1510   21.4320  -12.6480 N   0  0  0  0  0  0  0  0  0  0  0  0
   13.1610   19.3740  -12.5890 N   0  0  0  0  0  0  0  0  0  0  0  0
   13.8010   25.0070   -8.7930 N   0  0  0  0  0  0  0  0  0  0  0  0
   14.4410   26.1800   -9.3770 C   0  0  2  0  0  0  0  0  0  0  0  0
   13.8440   26.5820  -10.7190 C   0  0  0  0  0  0  0  0  0  0  0  0
   13.9060   27.7620  -11.0860 O   0  0  0  0  0  0  0  0  0  0  0  0
   15.9450   25.9350   -9.5330 C   0  0  0  0  0  0  0  0  0  0  0  0
   16.7830   27.2050   -9.5020 C   0  0  0  0  0  0  0  0  0  0  0  0
   18.0580   27.0100   -8.6920 C   0  0  0  0  0  0  0  0  0  0  0  0
   18.9660   25.9650   -9.3180 C   0  0  0  0  0  0  0  0  0  0  0  0
   20.1300   25.6590   -8.4410 N   0  0  0  0  0  0  0  0  0  0  0  0
   17.2120   21.5300   -1.1540 N   0  0  0  0  0  0  0  0  0  0  0  0
   17.0370   22.6960   -2.0060 C   0  0  2  0  0  0  0  0  0  0  0  0
   17.8520   23.8610   -1.4640 C   0  0  0  0  0  0  0  0  0  0  0  0
   17.8770   24.1200   -0.2570 O   0  0  0  0  0  0  0  0  0  0  0  0
   15.5620   23.0800   -2.1070 C   0  0  0  0  0  0  0  0  0  0  0  0
   15.3070   24.2320   -3.0550 C   0  0  0  0  0  0  0  0  0  0  0  0
   15.3990   25.5500   -2.6230 C   0  0  0  0  0  0  0  0  0  0  0  0
   14.9820   24.0010   -4.3840 C   0  0  0  0  0  0  0  0  0  0  0  0
   15.1680   26.6050   -3.4870 C   0  0  0  0  0  0  0  0  0  0  0  0
   14.7500   25.0500   -5.2570 C   0  0  0  0  0  0  0  0  0  0  0  0
   14.8440   26.3500   -4.8020 C   0  0  0  0  0  0  0  0  0  0  0  0
   14.6130   27.3950   -5.6670 O   0  0  0  0  0  0  0  0  0  0  0  0
   18.5120   24.5680   -2.3690 N   0  0  0  0  0  0  0  0  0  0  0  0
   19.4520   25.6280   -2.0240 C   0  0  2  0  0  0  0  0  0  0  0  0
   18.8710   26.9510   -2.5150 C   0  0  0  0  0  0  0  0  0  0  0  0
   18.9870   27.2930   -3.6960 O   0  0  0  0  0  0  0  0  0  0  0  0
   20.8200   25.3330   -2.6320 C   0  0  0  0  0  0  0  0  0  0  0  0
   21.8880   26.3640   -2.3430 C   0  0  0  0  0  0  0  0  0  0  0  0
   23.2450   25.9250   -2.8530 C   0  0  0  0  0  0  0  0  0  0  0  0
   23.6050   24.7520   -2.7530 O   0  0  0  0  0  0  0  0  0  0  0  0
   24.0040   26.8630   -3.4070 N   0  0  0  0  0  0  0  0  0  0  0  0
   18.2410   27.6910   -1.6020 N   0  0  0  0  0  0  0  0  0  0  0  0
   17.6350   28.9700   -1.9470 C   0  0  2  0  0  0  0  0  0  0  0  0
   18.6550   30.0900   -2.0890 C   0  0  0  0  0  0  0  0  0  0  0  0
   18.3770   31.0790   -2.7750 O   0  0  0  0  0  0  0  0  0  0  0  0
   16.5940   29.3600   -0.8970 C   0  0  0  0  0  0  0  0  0  0  0  0
   19.8200   29.9680   -1.4650 N   0  0  0  0  0  0  0  0  0  0  0  0
   20.7950   31.0350   -1.5350 C   0  0  0  0  0  0  0  0  0  0  0  0
   22.1050   30.6400   -2.1830 C   0  0  0  0  0  0  0  0  0  0  0  0
   22.2100   29.5950   -2.8320 O   0  0  0  0  0  0  0  0  0  0  0  0
   23.1140   31.4910   -2.0150 N   0  0  0  0  0  0  0  0  0  0  0  0
   24.4500   31.2360   -2.5270 C   0  0  2  0  0  0  0  0  0  0  0  0
   25.1840   30.1800   -1.7180 C   0  0  0  0  0  0  0  0  0  0  0  0
   26.2870   29.7800   -2.1060 O   0  0  0  0  0  0  0  0  0  0  0  0
   25.2520   32.5360   -2.5080 C   0  0  0  0  0  0  0  0  0  0  0  0
   24.7210   33.5590   -3.4890 C   0  0  0  0  0  0  0  0  0  0  0  0
   24.3780   33.2320   -4.6280 O   0  0  0  0  0  0  0  0  0  0  0  0
   24.6150   34.8050   -3.0380 N   0  0  0  0  0  0  0  0  0  0  0  0
   24.5910   29.7200   -0.6160 N   0  0  0  0  0  0  0  0  0  0  0  0
   25.2860   28.9350    0.3910 C   0  0  2  0  0  0  0  0  0  0  0  0
   25.0320   27.4550    0.1620 C   0  0  0  0  0  0  0  0  0  0  0  0
   23.8950   26.9960    0.3570 O   0  0  0  0  0  0  0  0  0  0  0  0
   24.8150   29.3380    1.7860 C   0  0  2  0  0  0  0  0  0  0  0  0
   23.4190   29.0450    1.9180 O   0  0  0  0  0  0  0  0  0  0  0  0
   25.0190   30.8290    2.0060 C   0  0  0  0  0  0  0  0  0  0  0  0
   18.5740   28.0490    7.2030 N   0  0  0  0  0  0  0  0  0  0  0  0
   18.4310   29.2360    6.3690 C   0  0  2  0  0  0  0  0  0  0  0  0
   18.9540   28.9780    4.9640 C   0  0  0  0  0  0  0  0  0  0  0  0
   20.0230   28.3910    4.7800 O   0  0  0  0  0  0  0  0  0  0  0  0
   19.1690   30.4260    6.9830 C   0  0  0  0  0  0  0  0  0  0  0  0
   19.0330   31.6890    6.1820 C   0  0  0  0  0  0  0  0  0  0  0  0
   17.8420   32.3930    6.1740 C   0  0  0  0  0  0  0  0  0  0  0  0
   20.0870   32.1560    5.4150 C   0  0  0  0  0  0  0  0  0  0  0  0
   17.7090   33.5490    5.4310 C   0  0  0  0  0  0  0  0  0  0  0  0
   19.9600   33.3120    4.6680 C   0  0  0  0  0  0  0  0  0  0  0  0
   18.7690   34.0090    4.6770 C   0  0  0  0  0  0  0  0  0  0  0  0
   18.1800   29.4150    3.9700 N   0  0  0  0  0  0  0  0  0  0  0  0
   18.4980   29.1960    2.5600 C   0  0  2  0  0  0  0  0  0  0  0  0
   18.7310   27.7200    2.2530 C   0  0  0  0  0  0  0  0  0  0  0  0
   19.3900   27.3770    1.2660 O   0  0  0  0  0  0  0  0  0  0  0  0
   19.7100   30.0290    2.1280 C   0  0  0  0  0  0  0  0  0  0  0  0
   19.3510   31.4740    1.8490 C   0  0  0  0  0  0  0  0  0  0  0  0
   18.1750   31.8380    1.8230 O   0  0  0  0  0  0  0  0  0  0  0  0
   20.3640   32.3070    1.6380 N   0  0  0  0  0  0  0  0  0  0  0  0
   16.3510   24.1930    2.2730 N   0  0  0  0  0  0  0  0  0  0  0  0
   15.0220   23.6300    2.4460 C   0  0  2  0  0  0  0  0  0  0  0  0
   14.9810   22.2450    1.8240 C   0  0  0  0  0  0  0  0  0  0  0  0
   15.4840   22.0470    0.7130 O   0  0  0  0  0  0  0  0  0  0  0  0
   13.9600   24.5220    1.7970 C   0  0  0  0  0  0  0  0  0  0  0  0
   14.1000   25.9920    2.1240 C   0  0  0  0  0  0  0  0  0  0  0  0
   14.0070   26.4460    3.4310 C   0  0  0  0  0  0  0  0  0  0  0  0
   14.3090   26.9270    1.1200 C   0  0  0  0  0  0  0  0  0  0  0  0
   14.1260   27.7870    3.7330 C   0  0  0  0  0  0  0  0  0  0  0  0
   14.4310   28.2710    1.4110 C   0  0  0  0  0  0  0  0  0  0  0  0
   14.3380   28.6950    2.7200 C   0  0  0  0  0  0  0  0  0  0  0  0
   14.4570   30.0320    3.0200 O   0  0  0  0  0  0  0  0  0  0  0  0
  2  1  1  6
  3  2  1  0
  4  3  2  0
  5  2  1  0
  6  5  1  0
  7  6  1  0
  8  7  1  0
  9  8  1  0
 11 10  1  1
 12 11  1  0
 13 12  2  0
 14 11  1  0
 15 14  1  0
 16 15  2  0
 17 15  1  0
 18 16  1  0
 19 17  2  0
 20 19  1  0
 20 18  2  0
 21 20  1  0
 23 22  1  6
 24 23  1  0
 25 24  2  0
 26 23  1  0
 27 26  1  0
 28 27  1  0
 29 28  1  0
 30 29  1  0
 31 30  1  0
 32 30  2  0
 33 24  1  0
 34 33  1  0
 35 34  1  0
 36 35  2  0
 34 37  1  1
 38 37  1  0
 39 38  1  0
 40 38  1  0
 41 35  1  0
 42 41  1  0
 43 42  1  0
 44 43  2  0
 42 45  1  1
 46 45  1  0
 47 46  2  0
 48 46  1  0
 49 47  1  0
 50 48  2  0
 51 50  1  0
 51 49  2  0
 52 43  1  0
 53 52  1  0
 54 53  1  0
 55 54  2  0
 53 56  1  6
 57 56  1  0
 58 57  1  0
 59 58  1  0
 60 59  1  0
 61 60  1  0
 62 60  2  0
 63 54  1  0
 64 63  1  0
 65 64  1  0
 66 65  2  0
 64 67  1  6
 68 67  1  0
 69 68  1  0
 70 69  1  0
 71 70  1  0
 73 72  1  1
 74 73  1  0
 75 74  2  0
 76 73  1  0
 77 76  1  0
 78 77  2  0
 79 77  1  0
 80 78  1  0
 81 79  2  0
 82 81  1  0
 82 80  2  0
 83 82  1  0
 84 74  1  0
 85 84  1  0
 86 85  1  0
 87 86  2  0
 85 88  1  6
 89 88  1  0
 90 89  1  0
 91 90  2  0
 92 90  1  0
 93 86  1  0
 94 93  1  0
 95 94  1  0
 96 95  2  0
 94 97  1  1
 98 95  1  0
 99 98  1  0
100 99  1  0
101100  2  0
102100  1  0
103102  1  0
104103  1  0
105104  2  0
103106  1  1
107106  1  0
108107  2  0
109107  1  0
110104  1  0
111110  1  6
112111  1  0
113112  2  0
114111  1  0
115114  1  0
114116  1  6
118117  1  1
119118  1  0
120119  2  0
121118  1  0
122121  1  0
123122  2  0
124122  1  0
125123  1  0
126124  2  0
127126  1  0
127125  2  0
128119  1  0
129128  1  0
130129  1  0
131130  2  0
129132  1  1
133132  1  0
134133  2  0
135133  1  0
137136  1  6
138137  1  0
139138  2  0
140137  1  0
141140  1  0
142141  2  0
143141  1  0
144142  1  0
145143  2  0
146145  1  0
146144  2  0
147146  1  0
M  END
$$$$
