
     RDKit          3D

109109  0  0  0  0  0  0  0  0999 V2000
    1.4520  -11.7340   -6.2090 N   0  0  0  0  0  0  0  0  0  0  0  0
    2.5950  -12.5070   -5.7510 C   0  0  2  0  0  0  0  0  0  0  0  0
    3.4050  -11.7700   -4.6960 C   0  0  0  0  0  0  0  0  0  0  0  0
    4.5690  -12.1140   -4.4580 O   0  0  0  0  0  0  0  0  0  0  0  0
    3.4720  -12.8900   -6.9360 C   0  0  0  0  0  0  0  0  0  0  0  0
    2.7010  -13.6000   -8.0220 C   0  0  0  0  0  0  0  0  0  0  0  0
    2.2000  -14.8830   -7.8180 C   0  0  0  0  0  0  0  0  0  0  0  0
    2.4620  -12.9850   -9.2440 C   0  0  0  0  0  0  0  0  0  0  0  0
    1.4890  -15.5390   -8.7990 C   0  0  0  0  0  0  0  0  0  0  0  0
    1.7510  -13.6340  -10.2350 C   0  0  0  0  0  0  0  0  0  0  0  0
    1.2660  -14.9100  -10.0040 C   0  0  0  0  0  0  0  0  0  0  0  0
    0.5580  -15.5590  -10.9870 O   0  0  0  0  0  0  0  0  0  0  0  0
    5.2070  -17.1630    2.0440 N   0  0  0  0  0  0  0  0  0  0  0  0
    5.2320  -18.0020    3.2270 C   0  0  2  0  0  0  0  0  0  0  0  0
    6.4440  -18.9190    3.1310 C   0  0  0  0  0  0  0  0  0  0  0  0
    6.8780  -19.2990    2.0370 O   0  0  0  0  0  0  0  0  0  0  0  0
    3.9370  -18.8190    3.3720 C   0  0  0  0  0  0  0  0  0  0  0  0
    3.7880  -19.8480    2.3050 C   0  0  0  0  0  0  0  0  0  0  0  0
    3.2780  -19.5100    1.0580 C   0  0  0  0  0  0  0  0  0  0  0  0
    4.1860  -21.1590    2.5250 C   0  0  0  0  0  0  0  0  0  0  0  0
    3.1620  -20.4630    0.0460 C   0  0  0  0  0  0  0  0  0  0  0  0
    4.0580  -22.1330    1.5240 C   0  0  0  0  0  0  0  0  0  0  0  0
    3.5490  -21.7800    0.2850 C   0  0  0  0  0  0  0  0  0  0  0  0
    3.4440  -22.7420   -0.7100 O   0  0  0  0  0  0  0  0  0  0  0  0
    8.1610  -22.2080    3.0230 N   0  0  0  0  0  0  0  0  0  0  0  0
    7.7300  -23.5500    2.6910 C   0  0  2  0  0  0  0  0  0  0  0  0
    8.6960  -24.6050    3.1980 C   0  0  0  0  0  0  0  0  0  0  0  0
    8.2770  -25.7360    3.4770 O   0  0  0  0  0  0  0  0  0  0  0  0
    7.5660  -23.6710    1.1790 C   0  0  0  0  0  0  0  0  0  0  0  0
    7.4860  -25.0620    0.5820 C   0  0  0  0  0  0  0  0  0  0  0  0
    6.2620  -25.7900    1.1290 C   0  0  0  0  0  0  0  0  0  0  0  0
    7.4730  -24.9640   -0.9450 C   0  0  0  0  0  0  0  0  0  0  0  0
    7.7670  -19.2290   -0.8170 N   0  0  0  0  0  0  0  0  0  0  0  0
    6.9870  -19.4610   -2.0560 C   0  0  2  0  0  0  0  0  0  0  0  0
    5.7880  -18.5370   -2.0240 C   0  0  0  0  0  0  0  0  0  0  0  0
    5.3570  -18.2100   -0.9740 O   0  0  0  0  0  0  0  0  0  0  0  0
    6.5450  -20.9070   -2.2490 C   0  0  0  0  0  0  0  0  0  0  0  0
    7.6220  -21.8640   -2.7480 C   0  0  0  0  0  0  0  0  0  0  0  0
    8.4700  -21.4470   -3.9250 C   0  0  0  0  0  0  0  0  0  0  0  0
    8.0040  -20.8720   -4.8970 O   0  0  0  0  0  0  0  0  0  0  0  0
    9.7470  -21.7490   -3.8420 N   0  0  0  0  0  0  0  0  0  0  0  0
    5.2760  -18.1520   -3.1750 N   0  0  0  0  0  0  0  0  0  0  0  0
    4.1640  -17.1840   -3.2200 C   0  0  2  0  0  0  0  0  0  0  0  0
    2.8050  -17.8580   -3.1590 C   0  0  0  0  0  0  0  0  0  0  0  0
    2.6830  -19.0240   -3.4870 O   0  0  0  0  0  0  0  0  0  0  0  0
    4.2250  -16.3690   -4.4350 C   0  0  0  0  0  0  0  0  0  0  0  0
    3.0540  -15.5970   -4.5320 O   0  0  0  0  0  0  0  0  0  0  0  0
    1.8170  -17.0480   -2.8220 N   0  0  0  0  0  0  0  0  0  0  0  0
    0.4150  -17.4740   -2.6800 C   0  0  2  0  0  0  0  0  0  0  0  0
   -0.2740  -17.3770   -4.0400 C   0  0  0  0  0  0  0  0  0  0  0  0
   -0.8910  -18.3340   -4.4710 O   0  0  0  0  0  0  0  0  0  0  0  0
   -0.2290  -16.6420   -1.5740 C   0  0  0  0  0  0  0  0  0  0  0  0
   -0.1400  -17.2250   -0.1860 C   0  0  0  0  0  0  0  0  0  0  0  0
   -0.6140  -18.4900    0.0810 C   0  0  0  0  0  0  0  0  0  0  0  0
    0.3220  -16.4780    0.8780 C   0  0  0  0  0  0  0  0  0  0  0  0
   -0.5720  -19.0150    1.3560 C   0  0  0  0  0  0  0  0  0  0  0  0
    0.3610  -16.9820    2.1600 C   0  0  0  0  0  0  0  0  0  0  0  0
   -0.0780  -18.2610    2.3960 C   0  0  0  0  0  0  0  0  0  0  0  0
   -0.0420  -18.7870    3.6330 O   0  0  0  0  0  0  0  0  0  0  0  0
   -0.1130  -16.2580   -4.7250 N   0  0  0  0  0  0  0  0  0  0  0  0
   -0.7540  -16.0800   -6.0360 C   0  0  0  0  0  0  0  0  0  0  0  0
   -2.2300  -15.8680   -5.8450 C   0  0  0  0  0  0  0  0  0  0  0  0
   -3.0050  -16.7340   -6.1910 O   0  0  0  0  0  0  0  0  0  0  0  0
  -10.8280  -14.3900   -7.6940 N   0  0  0  0  0  0  0  0  0  0  0  0
  -11.7010  -15.4310   -8.2810 C   0  0  2  0  0  0  0  0  0  0  0  0
  -11.2600  -16.7760   -7.7180 C   0  0  0  0  0  0  0  0  0  0  0  0
  -10.4600  -17.4240   -8.3950 O   0  0  0  0  0  0  0  0  0  0  0  0
  -11.4880  -15.4570   -9.8010 C   0  0  2  0  0  0  0  0  0  0  0  0
  -10.0940  -15.2870  -10.0430 O   0  0  0  0  0  0  0  0  0  0  0  0
  -12.2570  -14.3980  -10.5610 C   0  0  0  0  0  0  0  0  0  0  0  0
  -11.7760  -17.2000   -6.5610 N   0  0  0  0  0  0  0  0  0  0  0  0
  -11.2530  -18.4900   -6.0510 C   0  0  2  0  0  0  0  0  0  0  0  0
  -12.3230  -19.4220   -5.4740 C   0  0  0  0  0  0  0  0  0  0  0  0
  -13.4900  -19.2730   -5.7800 O   0  0  0  0  0  0  0  0  0  0  0  0
  -10.0580  -18.2420   -5.1450 C   0  0  0  0  0  0  0  0  0  0  0  0
   -8.7410  -18.3310   -5.8590 C   0  0  0  0  0  0  0  0  0  0  0  0
   -8.1950  -19.5580   -6.1810 C   0  0  0  0  0  0  0  0  0  0  0  0
   -8.0640  -17.1990   -6.2620 C   0  0  0  0  0  0  0  0  0  0  0  0
   -6.9780  -19.6570   -6.8410 C   0  0  0  0  0  0  0  0  0  0  0  0
   -6.8510  -17.2860   -6.9150 C   0  0  0  0  0  0  0  0  0  0  0  0
   -6.3060  -18.5110   -7.2230 C   0  0  0  0  0  0  0  0  0  0  0  0
   -5.1140  -18.5910   -7.8750 O   0  0  0  0  0  0  0  0  0  0  0  0
  -11.8700  -20.3830   -4.6660 N   0  0  0  0  0  0  0  0  0  0  0  0
  -12.6260  -21.5070   -4.0500 C   0  0  0  0  0  0  0  0  0  0  0  0
  -13.3680  -21.2440   -2.7620 C   0  0  0  0  0  0  0  0  0  0  0  0
  -14.5830  -21.3390   -2.8360 O   0  0  0  0  0  0  0  0  0  0  0  0
  -12.6650  -21.1150   -1.6240 N   0  0  0  0  0  0  0  0  0  0  0  0
  -13.2220  -20.7300   -0.2810 C   0  0  2  0  0  0  0  0  0  0  0  0
  -12.0690  -20.5440    0.6960 C   0  0  0  0  0  0  0  0  0  0  0  0
  -11.8010  -19.4420    1.1440 O   0  0  0  0  0  0  0  0  0  0  0  0
  -14.2370  -21.7070    0.3350 C   0  0  0  0  0  0  0  0  0  0  0  0
  -15.6810  -21.2290    0.1800 C   0  0  0  0  0  0  0  0  0  0  0  0
  -14.0330  -23.1680   -0.0640 C   0  0  0  0  0  0  0  0  0  0  0  0
  -11.3990  -21.6390    0.9950 N   0  0  0  0  0  0  0  0  0  0  0  0
  -10.2350  -21.6140    1.8750 C   0  0  0  0  0  0  0  0  0  0  0  0
   -8.9880  -21.6710    1.0430 C   0  0  0  0  0  0  0  0  0  0  0  0
   -8.1400  -22.4650    1.3790 O   0  0  0  0  0  0  0  0  0  0  0  0
   -8.9450  -20.8820   -0.0250 N   0  0  0  0  0  0  0  0  0  0  0  0
   -7.8320  -20.7620   -0.9830 C   0  0  2  0  0  0  0  0  0  0  0  0
   -7.8080  -19.2980   -1.3750 C   0  0  0  0  0  0  0  0  0  0  0  0
   -6.9810  -18.8890   -2.1730 O   0  0  0  0  0  0  0  0  0  0  0  0
   -8.0340  -21.6680   -2.1860 C   0  0  0  0  0  0  0  0  0  0  0  0
   -8.0010  -23.1310   -1.8520 C   0  0  0  0  0  0  0  0  0  0  0  0
   -6.8230  -23.8330   -1.7510 C   0  0  0  0  0  0  0  0  0  0  0  0
   -9.1630  -23.8060   -1.5960 C   0  0  0  0  0  0  0  0  0  0  0  0
   -6.8150  -25.1740   -1.4420 C   0  0  0  0  0  0  0  0  0  0  0  0
   -9.1740  -25.1510   -1.3070 C   0  0  0  0  0  0  0  0  0  0  0  0
   -7.9960  -25.8330   -1.2170 C   0  0  0  0  0  0  0  0  0  0  0  0
   -8.0460  -27.1390   -0.8900 O   0  0  0  0  0  0  0  0  0  0  0  0
  2  1  1  6
  3  2  1  0
  4  3  2  0
  5  2  1  0
  6  5  1  0
  7  6  2  0
  8  6  1  0
  9  7  1  0
 10  8  2  0
 11 10  1  0
 11  9  2  0
 12 11  1  0
 14 13  1  6
 15 14  1  0
 16 15  2  0
 17 14  1  0
 18 17  1  0
 19 18  2  0
 20 18  1  0
 21 19  1  0
 22 20  2  0
 23 22  1  0
 23 21  2  0
 24 23  1  0
 26 25  1  6
 27 26  1  0
 28 27  2  0
 29 26  1  0
 30 29  1  0
 31 30  1  0
 32 30  1  0
 34 33  1  1
 35 34  1  0
 36 35  2  0
 37 34  1  0
 38 37  1  0
 39 38  1  0
 40 39  2  0
 41 39  1  0
 42 35  1  0
 43 42  1  0
 44 43  1  0
 45 44  2  0
 43 46  1  6
 47 46  1  0
 48 44  1  0
 49 48  1  0
 50 49  1  0
 51 50  2  0
 49 52  1  1
 53 52  1  0
 54 53  2  0
 55 53  1  0
 56 54  1  0
 57 55  2  0
 58 57  1  0
 58 56  2  0
 59 58  1  0
 60 50  1  0
 61 60  1  0
 62 61  1  0
 63 62  2  0
 65 64  1  1
 66 65  1  0
 67 66  2  0
 68 65  1  0
 69 68  1  0
 68 70  1  6
 71 66  1  0
 72 71  1  0
 73 72  1  0
 74 73  2  0
 72 75  1  1
 76 75  1  0
 77 76  2  0
 78 76  1  0
 79 77  1  0
 80 78  2  0
 81 80  1  0
 81 79  2  0
 82 81  1  0
 83 73  1  0
 84 83  1  0
 85 84  1  0
 86 85  2  0
 87 85  1  0
 88 87  1  6
 89 88  1  0
 90 89  2  0
 91 88  1  0
 92 91  1  0
 93 91  1  0
 94 89  1  0
 95 94  1  0
 96 95  1  0
 97 96  2  0
 98 96  1  0
 99 98  1  0
100 99  1  0
101100  2  0
 99102  1  6
103102  1  0
104103  2  0
105103  1  0
106104  1  0
107105  2  0
108107  1  0
108106  2  0
109108  1  0
M  END
$$$$
