
     RDKit          3D

106106  0  0  0  0  0  0  0  0999 V2000
  211.2200  271.2780  202.9150 N   0  0  0  0  0  0  0  0  0  0  0  0
  212.5540  270.8270  202.5470 C   0  0  2  0  0  0  0  0  0  0  0  0
  213.0520  269.8230  203.5750 C   0  0  0  0  0  0  0  0  0  0  0  0
  212.7280  269.9150  204.7630 O   0  0  0  0  0  0  0  0  0  0  0  0
  213.5300  272.0040  202.4290 C   0  0  0  0  0  0  0  0  0  0  0  0
  213.6350  272.8570  203.6790 C   0  0  0  0  0  0  0  0  0  0  0  0
  214.4150  274.1300  203.4050 C   0  0  0  0  0  0  0  0  0  0  0  0
  213.7210  275.0000  202.4630 N   0  0  0  0  0  0  0  0  0  0  0  0
  214.1250  275.2380  201.2230 C   0  0  0  0  0  0  0  0  0  0  0  0
  215.2150  274.6740  200.7320 N   0  0  0  0  0  0  0  0  0  0  0  0
  213.4150  276.0600  200.4560 N   0  0  0  0  0  0  0  0  0  0  0  0
  213.8420  268.8640  203.1040 N   0  0  0  0  0  0  0  0  0  0  0  0
  214.4190  267.8250  203.9450 C   0  0  2  0  0  0  0  0  0  0  0  0
  215.9210  268.0360  204.0740 C   0  0  0  0  0  0  0  0  0  0  0  0
  216.5910  268.4110  203.1080 O   0  0  0  0  0  0  0  0  0  0  0  0
  214.1350  266.4330  203.3750 C   0  0  0  0  0  0  0  0  0  0  0  0
  212.7400  265.9420  203.6380 C   0  0  0  0  0  0  0  0  0  0  0  0
  211.9590  266.5270  204.6190 C   0  0  0  0  0  0  0  0  0  0  0  0
  212.2130  264.8920  202.9070 C   0  0  0  0  0  0  0  0  0  0  0  0
  210.6780  266.0740  204.8650 C   0  0  0  0  0  0  0  0  0  0  0  0
  210.9320  264.4360  203.1480 C   0  0  0  0  0  0  0  0  0  0  0  0
  210.1640  265.0270  204.1280 C   0  0  0  0  0  0  0  0  0  0  0  0
  216.4420  267.7890  205.2720 N   0  0  0  0  0  0  0  0  0  0  0  0
  217.8580  267.9860  205.5340 C   0  0  2  0  0  0  0  0  0  0  0  0
  218.6920  266.9020  204.8570 C   0  0  0  0  0  0  0  0  0  0  0  0
  218.1800  265.8770  204.4000 O   0  0  0  0  0  0  0  0  0  0  0  0
  218.1300  267.9930  207.0380 C   0  0  0  0  0  0  0  0  0  0  0  0
  219.9990  267.1440  204.7980 N   0  0  0  0  0  0  0  0  0  0  0  0
  220.9120  266.2070  204.1670 C   0  0  2  0  0  0  0  0  0  0  0  0
  221.0510  264.9410  205.0120 C   0  0  0  0  0  0  0  0  0  0  0  0
  220.5390  264.8420  206.1300 O   0  0  0  0  0  0  0  0  0  0  0  0
  222.2780  266.8540  203.9470 C   0  0  0  0  0  0  0  0  0  0  0  0
  223.0350  266.1290  202.9940 O   0  0  0  0  0  0  0  0  0  0  0  0
  223.8130  263.4680  206.3390 N   0  0  0  0  0  0  0  0  0  0  0  0
  224.7000  263.5410  207.4940 C   0  0  2  0  0  0  0  0  0  0  0  0
  224.1260  264.3700  208.6350 C   0  0  0  0  0  0  0  0  0  0  0  0
  224.7000  264.3640  209.7290 O   0  0  0  0  0  0  0  0  0  0  0  0
  226.0610  264.1000  207.0710 C   0  0  0  0  0  0  0  0  0  0  0  0
  226.1380  265.6090  207.0540 C   0  0  0  0  0  0  0  0  0  0  0  0
  225.5490  266.3420  206.0330 C   0  0  0  0  0  0  0  0  0  0  0  0
  226.8090  266.3010  208.0530 C   0  0  0  0  0  0  0  0  0  0  0  0
  225.6200  267.7210  206.0110 C   0  0  0  0  0  0  0  0  0  0  0  0
  226.8850  267.6800  208.0400 C   0  0  0  0  0  0  0  0  0  0  0  0
  226.2890  268.3850  207.0160 C   0  0  0  0  0  0  0  0  0  0  0  0
  226.3620  269.7590  207.0000 O   0  0  0  0  0  0  0  0  0  0  0  0
  223.0220  265.0780  208.4130 N   0  0  0  0  0  0  0  0  0  0  0  0
  222.3730  265.9040  209.4270 C   0  0  2  0  0  0  0  0  0  0  0  0
  220.8700  265.6570  209.4250 C   0  0  0  0  0  0  0  0  0  0  0  0
  220.0610  266.5860  209.3760 O   0  0  0  0  0  0  0  0  0  0  0  0
  222.6810  267.3820  209.2080 C   0  0  0  0  0  0  0  0  0  0  0  0
  217.1030  265.1730  210.1510 N   0  0  0  0  0  0  0  0  0  0  0  0
  216.2040  265.7160  211.1580 C   0  0  2  0  0  0  0  0  0  0  0  0
  215.5690  264.5930  211.9670 C   0  0  0  0  0  0  0  0  0  0  0  0
  215.3590  263.4860  211.4650 O   0  0  0  0  0  0  0  0  0  0  0  0
  215.1180  266.5620  210.4950 C   0  0  0  0  0  0  0  0  0  0  0  0
  215.5260  268.0120  210.3320 C   0  0  0  0  0  0  0  0  0  0  0  0
  216.3770  268.5150  211.0650 O   0  0  0  0  0  0  0  0  0  0  0  0
  214.9210  268.6920  209.3650 N   0  0  0  0  0  0  0  0  0  0  0  0
  222.0110  270.4810  192.0670 N   0  0  0  0  0  0  0  0  0  0  0  0
  221.5230  270.9120  193.3760 C   0  0  2  0  0  0  0  0  0  0  0  0
  222.5550  270.4790  194.4080 C   0  0  0  0  0  0  0  0  0  0  0  0
  222.4390  269.4260  195.0340 O   0  0  0  0  0  0  0  0  0  0  0  0
  220.1480  270.3230  193.6650 C   0  0  0  0  0  0  0  0  0  0  0  0
  219.4970  270.9280  194.8950 C   0  0  0  0  0  0  0  0  0  0  0  0
  220.1260  271.6780  195.6410 O   0  0  0  0  0  0  0  0  0  0  0  0
  218.2280  270.6030  195.1110 N   0  0  0  0  0  0  0  0  0  0  0  0
  223.5800  271.3100  194.5920 N   0  0  0  0  0  0  0  0  0  0  0  0
  224.7140  270.9780  195.4450 C   0  0  2  0  0  0  0  0  0  0  0  0
  224.4410  271.2130  196.9260 C   0  0  0  0  0  0  0  0  0  0  0  0
  225.3930  271.2680  197.7140 O   0  0  0  0  0  0  0  0  0  0  0  0
  225.9480  271.7730  195.0140 C   0  0  0  0  0  0  0  0  0  0  0  0
  226.5260  271.3510  193.6810 C   0  0  0  0  0  0  0  0  0  0  0  0
  226.0640  270.2180  193.0250 C   0  0  0  0  0  0  0  0  0  0  0  0
  227.5370  272.0860  193.0800 C   0  0  0  0  0  0  0  0  0  0  0  0
  226.5910  269.8320  191.8070 C   0  0  0  0  0  0  0  0  0  0  0  0
  228.0710  271.7070  191.8630 C   0  0  0  0  0  0  0  0  0  0  0  0
  227.5950  270.5800  191.2320 C   0  0  0  0  0  0  0  0  0  0  0  0
  228.1230  270.1990  190.0200 O   0  0  0  0  0  0  0  0  0  0  0  0
  223.1800  271.3530  197.3260 N   0  0  0  0  0  0  0  0  0  0  0  0
  222.8280  271.5500  198.7250 C   0  0  2  0  0  0  0  0  0  0  0  0
  222.6590  270.2410  199.4850 C   0  0  0  0  0  0  0  0  0  0  0  0
  222.3810  270.2720  200.6880 O   0  0  0  0  0  0  0  0  0  0  0  0
  221.5450  272.3790  198.8350 C   0  0  0  0  0  0  0  0  0  0  0  0
  221.6640  273.7290  198.1590 C   0  0  0  0  0  0  0  0  0  0  0  0
  222.7340  274.1040  197.6800 O   0  0  0  0  0  0  0  0  0  0  0  0
  220.5630  274.4680  198.1160 N   0  0  0  0  0  0  0  0  0  0  0  0
  222.8150  269.1000  198.8190 N   0  0  0  0  0  0  0  0  0  0  0  0
  222.6830  267.7910  199.4430 C   0  0  2  0  0  0  0  0  0  0  0  0
  224.0540  267.1350  199.5260 C   0  0  0  0  0  0  0  0  0  0  0  0
  224.7920  267.1030  198.5360 O   0  0  0  0  0  0  0  0  0  0  0  0
  221.7120  266.9090  198.6560 C   0  0  0  0  0  0  0  0  0  0  0  0
  220.2620  267.2860  198.8580 C   0  0  0  0  0  0  0  0  0  0  0  0
  219.6280  267.0650  200.0720 C   0  0  0  0  0  0  0  0  0  0  0  0
  219.5280  267.8690  197.8340 C   0  0  0  0  0  0  0  0  0  0  0  0
  218.3050  267.4120  200.2600 C   0  0  0  0  0  0  0  0  0  0  0  0
  218.2040  268.2180  198.0130 C   0  0  0  0  0  0  0  0  0  0  0  0
  217.5980  267.9870  199.2270 C   0  0  0  0  0  0  0  0  0  0  0  0
  216.2790  268.3330  199.4090 O   0  0  0  0  0  0  0  0  0  0  0  0
  224.3900  266.6130  200.7030 N   0  0  0  0  0  0  0  0  0  0  0  0
  225.7220  266.0990  200.9830 C   0  0  2  0  0  0  0  0  0  0  0  0
  225.6280  264.7240  201.6280 C   0  0  0  0  0  0  0  0  0  0  0  0
  224.5440  264.2390  201.9610 O   0  0  0  0  0  0  0  0  0  0  0  0
  226.4980  267.0500  201.9020 C   0  0  0  0  0  0  0  0  0  0  0  0
  226.8490  268.4230  201.3370 C   0  0  0  0  0  0  0  0  0  0  0  0
  227.4810  269.2720  202.4160 C   0  0  0  0  0  0  0  0  0  0  0  0
  227.7850  268.2820  200.1560 C   0  0  0  0  0  0  0  0  0  0  0  0
  2  1  1  1
  3  2  1  0
  4  3  2  0
  5  2  1  0
  6  5  1  0
  7  6  1  0
  8  7  1  0
  9  8  1  0
 10  9  1  0
 11  9  2  0
 12  3  1  0
 13 12  1  0
 14 13  1  0
 15 14  2  0
 13 16  1  6
 17 16  1  0
 18 17  2  0
 19 17  1  0
 20 18  1  0
 21 19  2  0
 22 21  1  0
 22 20  2  0
 23 14  1  0
 24 23  1  0
 25 24  1  0
 26 25  2  0
 24 27  1  1
 28 25  1  0
 29 28  1  0
 30 29  1  0
 31 30  2  0
 29 32  1  1
 33 32  1  0
 35 34  1  6
 36 35  1  0
 37 36  2  0
 38 35  1  0
 39 38  1  0
 40 39  2  0
 41 39  1  0
 42 40  1  0
 43 41  2  0
 44 42  2  0
 44 43  1  0
 45 44  1  0
 46 36  1  0
 47 46  1  0
 48 47  1  0
 49 48  2  0
 47 50  1  6
 52 51  1  6
 53 52  1  0
 54 53  2  0
 55 52  1  0
 56 55  1  0
 57 56  2  0
 58 56  1  0
 60 59  1  6
 61 60  1  0
 62 61  2  0
 63 60  1  0
 64 63  1  0
 65 64  2  0
 66 64  1  0
 67 61  1  0
 68 67  1  0
 69 68  1  0
 70 69  2  0
 68 71  1  6
 72 71  1  0
 73 72  2  0
 74 72  1  0
 75 73  1  0
 76 74  2  0
 77 76  1  0
 77 75  2  0
 78 77  1  0
 79 69  1  0
 80 79  1  0
 81 80  1  0
 82 81  2  0
 80 83  1  6
 84 83  1  0
 85 84  2  0
 86 84  1  0
 87 81  1  0
 88 87  1  0
 89 88  1  0
 90 89  2  0
 88 91  1  6
 92 91  1  0
 93 92  2  0
 94 92  1  0
 95 93  1  0
 96 94  2  0
 97 96  1  0
 97 95  2  0
 98 97  1  0
 99 89  1  0
100 99  1  0
101100  1  0
102101  2  0
100103  1  1
104103  1  0
105104  1  0
106104  1  0
M  END
$$$$
