
     RDKit          3D

102100  0  0  0  0  0  0  0  0999 V2000
    0.4880   12.5770    6.2970 N   0  0  0  0  0  0  0  0  0  0  0  0
    1.7500   13.1760    5.8820 C   0  0  2  0  0  0  0  0  0  0  0  0
    2.5270   12.2750    4.9270 C   0  0  0  0  0  0  0  0  0  0  0  0
    3.7660   12.3560    4.8610 O   0  0  0  0  0  0  0  0  0  0  0  0
    2.5750   13.5350    7.1260 C   0  0  0  0  0  0  0  0  0  0  0  0
    1.7880   14.4080    8.1000 C   0  0  0  0  0  0  0  0  0  0  0  0
    0.9830   15.4470    7.6180 C   0  0  0  0  0  0  0  0  0  0  0  0
    1.8100   14.1770    9.4810 C   0  0  0  0  0  0  0  0  0  0  0  0
    0.2420   16.2400    8.4680 C   0  0  0  0  0  0  0  0  0  0  0  0
    1.0640   14.9730   10.3460 C   0  0  0  0  0  0  0  0  0  0  0  0
    0.2780   16.0040    9.8260 C   0  0  0  0  0  0  0  0  0  0  0  0
   -0.4770   16.8170   10.6450 O   0  0  0  0  0  0  0  0  0  0  0  0
    4.3230   17.3560   -2.1520 N   0  0  0  0  0  0  0  0  0  0  0  0
    4.4130   18.1860   -3.3460 C   0  0  2  0  0  0  0  0  0  0  0  0
    5.6930   19.0040   -3.2590 C   0  0  0  0  0  0  0  0  0  0  0  0
    6.1480   19.3500   -2.1690 O   0  0  0  0  0  0  0  0  0  0  0  0
    3.1920   19.1080   -3.4950 C   0  0  0  0  0  0  0  0  0  0  0  0
    3.1090   20.1540   -2.4240 C   0  0  0  0  0  0  0  0  0  0  0  0
    2.6540   19.8380   -1.1490 C   0  0  0  0  0  0  0  0  0  0  0  0
    3.5020   21.4650   -2.6780 C   0  0  0  0  0  0  0  0  0  0  0  0
    2.5970   20.8100   -0.1450 C   0  0  0  0  0  0  0  0  0  0  0  0
    3.4450   22.4460   -1.6840 C   0  0  0  0  0  0  0  0  0  0  0  0
    2.9960   22.1130   -0.4220 C   0  0  0  0  0  0  0  0  0  0  0  0
    2.9410   23.0760    0.5570 O   0  0  0  0  0  0  0  0  0  0  0  0
    7.1760   19.1940    0.7210 N   0  0  0  0  0  0  0  0  0  0  0  0
    6.3440   19.3710    1.9010 C   0  0  2  0  0  0  0  0  0  0  0  0
    5.1110   18.4800    1.7880 C   0  0  0  0  0  0  0  0  0  0  0  0
    4.8230   17.9110    0.7340 O   0  0  0  0  0  0  0  0  0  0  0  0
    5.9640   20.8460    2.0890 C   0  0  0  0  0  0  0  0  0  0  0  0
    7.1660   21.7390    2.3450 C   0  0  0  0  0  0  0  0  0  0  0  0
    7.9490   21.3060    3.5770 C   0  0  0  0  0  0  0  0  0  0  0  0
    7.3630   20.8010    4.5500 O   0  0  0  0  0  0  0  0  0  0  0  0
    9.2810   21.4950    3.5450 N   0  0  0  0  0  0  0  0  0  0  0  0
    4.3780   18.3560    2.8900 N   0  0  0  0  0  0  0  0  0  0  0  0
    3.2780   17.4110    3.0000 C   0  0  2  0  0  0  0  0  0  0  0  0
    1.9320   18.1230    2.9700 C   0  0  0  0  0  0  0  0  0  0  0  0
    1.7160   19.0940    3.7000 O   0  0  0  0  0  0  0  0  0  0  0  0
    3.4040   16.5970    4.2870 C   0  0  0  0  0  0  0  0  0  0  0  0
    2.3920   15.6080    4.3660 O   0  0  0  0  0  0  0  0  0  0  0  0
    1.0270   17.5820    2.1780 N   0  0  0  0  0  0  0  0  0  0  0  0
   -0.3490   18.0970    2.2070 C   0  0  2  0  0  0  0  0  0  0  0  0
   -0.9270   17.5090    3.4860 C   0  0  0  0  0  0  0  0  0  0  0  0
   -0.9630   16.2780    3.5900 O   0  0  0  0  0  0  0  0  0  0  0  0
   -1.1420   17.3920    1.1150 C   0  0  0  0  0  0  0  0  0  0  0  0
   -0.8460   17.7170   -0.3240 C   0  0  0  0  0  0  0  0  0  0  0  0
   -1.2270   18.9240   -0.8760 C   0  0  0  0  0  0  0  0  0  0  0  0
   -0.2720   16.7740   -1.1560 C   0  0  0  0  0  0  0  0  0  0  0  0
   -0.9940   19.2070   -2.2090 C   0  0  0  0  0  0  0  0  0  0  0  0
   -0.0320   17.0390   -2.4910 C   0  0  0  0  0  0  0  0  0  0  0  0
   -0.4000   18.2590   -3.0170 C   0  0  0  0  0  0  0  0  0  0  0  0
   -0.1660   18.5310   -4.3270 O   0  0  0  0  0  0  0  0  0  0  0  0
   -1.3090   18.3300    4.4510 N   0  0  0  0  0  0  0  0  0  0  0  0
   -1.7760   17.7580    5.7250 C   0  0  0  0  0  0  0  0  0  0  0  0
   -3.2050   17.3350    5.5720 C   0  0  0  0  0  0  0  0  0  0  0  0
   -4.0780   18.0220    6.1180 O   0  0  0  0  0  0  0  0  0  0  0  0
   -6.5170   16.4770    6.1610 N   0  0  0  0  0  0  0  0  0  0  0  0
   -7.4820   16.2020    7.2080 C   0  0  2  0  0  0  0  0  0  0  0  0
   -8.8470   15.9520    6.5830 C   0  0  0  0  0  0  0  0  0  0  0  0
   -9.2970   16.7570    5.7520 O   0  0  0  0  0  0  0  0  0  0  0  0
   -7.5580   17.3670    8.2000 C   0  0  0  0  0  0  0  0  0  0  0  0
   -7.0500   17.0400    9.6210 C   0  0  0  0  0  0  0  0  0  0  0  0
   -8.1600   16.5560   10.5830 C   0  0  0  0  0  0  0  0  0  0  0  0
   -7.8810   15.8930   11.5920 O   0  0  0  0  0  0  0  0  0  0  0  0
   -9.4180   16.8950   10.2700 N   0  0  0  0  0  0  0  0  0  0  0  0
  -11.7940   16.4100    7.4980 N   0  0  0  0  0  0  0  0  0  0  0  0
  -12.8880   17.3080    7.8410 C   0  0  2  0  0  0  0  0  0  0  0  0
  -12.9160   18.5650    6.9780 C   0  0  0  0  0  0  0  0  0  0  0  0
  -13.9690   19.1980    6.8540 O   0  0  0  0  0  0  0  0  0  0  0  0
  -12.8000   17.6860    9.3270 C   0  0  2  0  0  0  0  0  0  0  0  0
  -11.7040   18.5840    9.5400 O   0  0  0  0  0  0  0  0  0  0  0  0
  -12.6070   16.4260   10.1870 C   0  0  0  0  0  0  0  0  0  0  0  0
  -11.7910   18.9210    6.3610 N   0  0  0  0  0  0  0  0  0  0  0  0
  -11.6640   20.1380    5.5660 C   0  0  2  0  0  0  0  0  0  0  0  0
  -12.7740   20.2370    4.5370 C   0  0  0  0  0  0  0  0  0  0  0  0
  -13.4070   19.2320    4.2130 O   0  0  0  0  0  0  0  0  0  0  0  0
  -10.3060   20.1830    4.8450 C   0  0  0  0  0  0  0  0  0  0  0  0
   -9.1370   20.4650    5.7810 C   0  0  0  0  0  0  0  0  0  0  0  0
   -9.2690   21.2140    6.7650 O   0  0  0  0  0  0  0  0  0  0  0  0
   -7.9740   19.8670    5.4700 N   0  0  0  0  0  0  0  0  0  0  0  0
  -13.0070   21.4400    4.0220 N   0  0  0  0  0  0  0  0  0  0  0  0
  -13.8450   21.6170    2.8530 C   0  0  0  0  0  0  0  0  0  0  0  0
  -13.3000   20.8650    1.6520 C   0  0  0  0  0  0  0  0  0  0  0  0
  -12.1660   20.3990    1.6220 O   0  0  0  0  0  0  0  0  0  0  0  0
  -14.1480   20.7480    0.6280 N   0  0  0  0  0  0  0  0  0  0  0  0
  -13.8080   19.9100   -0.5200 C   0  0  2  0  0  0  0  0  0  0  0  0
  -12.5790   20.4420   -1.2500 C   0  0  0  0  0  0  0  0  0  0  0  0
  -11.8440   19.6710   -1.8810 O   0  0  0  0  0  0  0  0  0  0  0  0
  -15.0310   19.7750   -1.4520 C   0  0  0  0  0  0  0  0  0  0  0  0
  -14.6050   19.7930   -2.9040 C   0  0  0  0  0  0  0  0  0  0  0  0
  -15.7540   18.4880   -1.1500 C   0  0  0  0  0  0  0  0  0  0  0  0
   -9.7260   21.5100   -0.0180 N   0  0  0  0  0  0  0  0  0  0  0  0
   -8.4550   21.0980    0.5580 C   0  0  2  0  0  0  0  0  0  0  0  0
   -8.4170   19.6060    0.8590 C   0  0  0  0  0  0  0  0  0  0  0  0
   -7.6880   19.1640    1.7540 O   0  0  0  0  0  0  0  0  0  0  0  0
   -8.1710   21.9180    1.8130 C   0  0  0  0  0  0  0  0  0  0  0  0
   -8.3230   23.4010    1.5630 C   0  0  0  0  0  0  0  0  0  0  0  0
   -7.5180   24.0540    0.6400 C   0  0  0  0  0  0  0  0  0  0  0  0
   -9.2730   24.1480    2.2440 C   0  0  0  0  0  0  0  0  0  0  0  0
   -7.6530   25.3990    0.4070 C   0  0  0  0  0  0  0  0  0  0  0  0
   -9.4140   25.5100    2.0180 C   0  0  0  0  0  0  0  0  0  0  0  0
   -8.6020   26.1270    1.1000 C   0  0  0  0  0  0  0  0  0  0  0  0
   -8.7480   27.4720    0.8670 O   0  0  0  0  0  0  0  0  0  0  0  0
  2  1  1  1
  3  2  1  0
  4  3  2  0
  5  2  1  0
  6  5  1  0
  7  6  2  0
  8  6  1  0
  9  7  1  0
 10  8  2  0
 11 10  1  0
 11  9  2  0
 12 11  1  0
 14 13  1  1
 15 14  1  0
 16 15  2  0
 17 14  1  0
 18 17  1  0
 19 18  2  0
 20 18  1  0
 21 19  1  0
 22 20  2  0
 23 21  2  0
 23 22  1  0
 24 23  1  0
 26 25  1  6
 27 26  1  0
 28 27  2  0
 29 26  1  0
 30 29  1  0
 31 30  1  0
 32 31  2  0
 33 31  1  0
 34 27  1  0
 35 34  1  0
 36 35  1  0
 37 36  2  0
 35 38  1  1
 39 38  1  0
 40 36  1  0
 41 40  1  0
 42 41  1  0
 43 42  2  0
 41 44  1  6
 45 44  1  0
 46 45  2  0
 47 45  1  0
 48 46  1  0
 49 47  2  0
 50 49  1  0
 50 48  2  0
 51 50  1  0
 52 42  1  0
 53 52  1  0
 54 53  1  0
 55 54  2  0
 57 56  1  6
 58 57  1  0
 59 58  2  0
 60 57  1  0
 61 60  1  0
 62 61  1  0
 63 62  2  0
 64 62  1  0
 66 65  1  6
 67 66  1  0
 68 67  2  0
 69 66  1  0
 70 69  1  0
 69 71  1  1
 72 67  1  0
 73 72  1  0
 74 73  1  0
 75 74  2  0
 73 76  1  6
 77 76  1  0
 78 77  2  0
 79 77  1  0
 80 74  1  0
 81 80  1  0
 82 81  1  0
 83 82  2  0
 84 82  1  0
 85 84  1  1
 86 85  1  0
 87 86  2  0
 88 85  1  0
 89 88  1  0
 90 88  1  0
 92 91  1  1
 93 92  1  0
 94 93  2  0
 95 92  1  0
 96 95  1  0
 97 96  2  0
 98 96  1  0
 99 97  1  0
100 98  2  0
101100  1  0
101 99  2  0
102101  1  0
M  END
$$$$
