
     RDKit          3D

106105  0  0  0  0  0  0  0  0999 V2000
    1.9360  -10.9890   -6.3450 N   0  0  0  0  0  0  0  0  0  0  0  0
    3.1690  -11.6590   -5.9800 C   0  0  2  0  0  0  0  0  0  0  0  0
    3.9500  -10.8880   -4.9260 C   0  0  0  0  0  0  0  0  0  0  0  0
    5.1580  -11.1140   -4.7580 O   0  0  0  0  0  0  0  0  0  0  0  0
    3.9890  -11.9220   -7.2490 C   0  0  0  0  0  0  0  0  0  0  0  0
    3.1510  -12.6110   -8.3310 C   0  0  0  0  0  0  0  0  0  0  0  0
    2.9250  -13.9920   -8.2890 C   0  0  0  0  0  0  0  0  0  0  0  0
    2.5700  -11.8850   -9.3710 C   0  0  0  0  0  0  0  0  0  0  0  0
    2.1600  -14.6260   -9.2470 C   0  0  0  0  0  0  0  0  0  0  0  0
    1.7930  -12.5180  -10.3460 C   0  0  0  0  0  0  0  0  0  0  0  0
    1.5930  -13.8910  -10.2760 C   0  0  0  0  0  0  0  0  0  0  0  0
    0.8280  -14.5320  -11.2360 O   0  0  0  0  0  0  0  0  0  0  0  0
    5.4420  -16.2180    2.1100 N   0  0  0  0  0  0  0  0  0  0  0  0
    5.4580  -17.1180    3.2520 C   0  0  2  0  0  0  0  0  0  0  0  0
    6.6990  -17.9770    3.1230 C   0  0  0  0  0  0  0  0  0  0  0  0
    7.1860  -18.2160    2.0180 O   0  0  0  0  0  0  0  0  0  0  0  0
    4.2060  -17.9990    3.3430 C   0  0  0  0  0  0  0  0  0  0  0  0
    4.0500  -19.0180    2.2250 C   0  0  0  0  0  0  0  0  0  0  0  0
    3.4880  -18.6480    1.0040 C   0  0  0  0  0  0  0  0  0  0  0  0
    4.4920  -20.3390    2.3770 C   0  0  0  0  0  0  0  0  0  0  0  0
    3.3530  -19.5610   -0.0300 C   0  0  0  0  0  0  0  0  0  0  0  0
    4.3650  -21.2670    1.3370 C   0  0  0  0  0  0  0  0  0  0  0  0
    3.7920  -20.8670    0.1340 C   0  0  0  0  0  0  0  0  0  0  0  0
    3.6530  -21.7540   -0.9160 O   0  0  0  0  0  0  0  0  0  0  0  0
    8.0140  -18.6880   -0.9220 N   0  0  0  0  0  0  0  0  0  0  0  0
    7.1360  -18.6960   -2.1000 C   0  0  2  0  0  0  0  0  0  0  0  0
    6.1310  -17.5540   -2.0200 C   0  0  0  0  0  0  0  0  0  0  0  0
    6.0540  -16.8100   -1.0440 O   0  0  0  0  0  0  0  0  0  0  0  0
    6.3940  -20.0330   -2.2740 C   0  0  0  0  0  0  0  0  0  0  0  0
    7.1580  -21.0880   -3.0660 C   0  0  0  0  0  0  0  0  0  0  0  0
    8.1770  -20.5000   -4.0710 C   0  0  0  0  0  0  0  0  0  0  0  0
    7.7990  -19.7540   -4.9970 O   0  0  0  0  0  0  0  0  0  0  0  0
    9.4790  -20.8340   -3.8820 N   0  0  0  0  0  0  0  0  0  0  0  0
    5.3340  -17.4220   -3.0580 N   0  0  0  0  0  0  0  0  0  0  0  0
    4.3360  -16.3750   -3.1120 C   0  0  2  0  0  0  0  0  0  0  0  0
    2.9470  -16.9910   -3.1990 C   0  0  0  0  0  0  0  0  0  0  0  0
    2.7440  -18.0270   -3.8400 O   0  0  0  0  0  0  0  0  0  0  0  0
    4.5940  -15.4620   -4.3060 C   0  0  0  0  0  0  0  0  0  0  0  0
    3.4620  -14.6740   -4.6110 O   0  0  0  0  0  0  0  0  0  0  0  0
    1.9950  -16.3630   -2.5300 N   0  0  0  0  0  0  0  0  0  0  0  0
    0.5970  -16.6670   -2.7730 C   0  0  2  0  0  0  0  0  0  0  0  0
    0.1870  -16.1830   -4.1520 C   0  0  0  0  0  0  0  0  0  0  0  0
    0.6440  -15.1370   -4.6230 O   0  0  0  0  0  0  0  0  0  0  0  0
   -0.2740  -15.9780   -1.7380 C   0  0  0  0  0  0  0  0  0  0  0  0
   -0.0710  -16.4540   -0.3360 C   0  0  0  0  0  0  0  0  0  0  0  0
   -0.4210  -17.7400    0.0180 C   0  0  0  0  0  0  0  0  0  0  0  0
    0.4730  -15.6290    0.6370 C   0  0  0  0  0  0  0  0  0  0  0  0
   -0.2570  -18.1990    1.2950 C   0  0  0  0  0  0  0  0  0  0  0  0
    0.6550  -16.0910    1.9370 C   0  0  0  0  0  0  0  0  0  0  0  0
    0.2780  -17.3830    2.2480 C   0  0  0  0  0  0  0  0  0  0  0  0
    0.4090  -17.8950    3.5040 O   0  0  0  0  0  0  0  0  0  0  0  0
   -0.7190  -16.8650   -4.8260 N   0  0  0  0  0  0  0  0  0  0  0  0
   -1.1310  -16.2940   -6.1220 C   0  0  0  0  0  0  0  0  0  0  0  0
   -1.8960  -15.0150   -5.8910 C   0  0  0  0  0  0  0  0  0  0  0  0
   -1.5490  -14.0200   -6.5060 O   0  0  0  0  0  0  0  0  0  0  0  0
   -5.2340  -13.8560   -6.5910 N   0  0  0  0  0  0  0  0  0  0  0  0
   -5.9980  -13.2050   -7.6760 C   0  0  2  0  0  0  0  0  0  0  0  0
   -7.4430  -13.1090   -7.1960 C   0  0  0  0  0  0  0  0  0  0  0  0
   -7.8330  -13.9610   -6.3950 O   0  0  0  0  0  0  0  0  0  0  0  0
   -5.9350  -14.0780   -8.9240 C   0  0  0  0  0  0  0  0  0  0  0  0
   -4.5430  -14.5650   -9.2710 C   0  0  0  0  0  0  0  0  0  0  0  0
   -4.5460  -15.1570  -10.6550 C   0  0  0  0  0  0  0  0  0  0  0  0
   -5.4610  -14.9220  -11.4400 O   0  0  0  0  0  0  0  0  0  0  0  0
   -3.5210  -15.9340  -10.9590 N   0  0  0  0  0  0  0  0  0  0  0  0
  -10.0430  -13.8870   -8.4870 N   0  0  0  0  0  0  0  0  0  0  0  0
  -10.8350  -15.0040   -9.0440 C   0  0  2  0  0  0  0  0  0  0  0  0
  -10.2750  -16.2830   -8.4490 C   0  0  0  0  0  0  0  0  0  0  0  0
  -10.0230  -17.2280   -9.2030 O   0  0  0  0  0  0  0  0  0  0  0  0
  -10.6720  -15.0540  -10.5620 C   0  0  2  0  0  0  0  0  0  0  0  0
   -9.2720  -15.0920  -10.8400 O   0  0  0  0  0  0  0  0  0  0  0  0
  -11.3000  -13.8660  -11.2560 C   0  0  0  0  0  0  0  0  0  0  0  0
  -10.0610  -16.2760   -7.1420 N   0  0  0  0  0  0  0  0  0  0  0  0
   -9.5760  -17.4970   -6.4680 C   0  0  2  0  0  0  0  0  0  0  0  0
  -10.7740  -18.1090   -5.7520 C   0  0  0  0  0  0  0  0  0  0  0  0
  -11.9000  -17.6950   -6.0680 O   0  0  0  0  0  0  0  0  0  0  0  0
   -8.4200  -17.1530   -5.5350 C   0  0  0  0  0  0  0  0  0  0  0  0
   -7.0510  -17.4240   -6.0950 C   0  0  0  0  0  0  0  0  0  0  0  0
   -6.8690  -17.6930   -7.4390 C   0  0  0  0  0  0  0  0  0  0  0  0
   -5.9370  -17.4170   -5.2770 C   0  0  0  0  0  0  0  0  0  0  0  0
   -5.6120  -17.9480   -7.9580 C   0  0  0  0  0  0  0  0  0  0  0  0
   -4.6750  -17.6730   -5.7810 C   0  0  0  0  0  0  0  0  0  0  0  0
   -4.5130  -17.9390   -7.1250 C   0  0  0  0  0  0  0  0  0  0  0  0
   -3.2750  -18.1920   -7.6260 O   0  0  0  0  0  0  0  0  0  0  0  0
  -10.5450  -19.0210   -4.8110 N   0  0  0  0  0  0  0  0  0  0  0  0
  -11.6580  -19.7290   -4.1580 C   0  0  0  0  0  0  0  0  0  0  0  0
  -12.1780  -18.8880   -3.0180 C   0  0  0  0  0  0  0  0  0  0  0  0
  -12.5970  -17.7620   -3.2790 O   0  0  0  0  0  0  0  0  0  0  0  0
  -12.2900  -19.4610   -1.8220 N   0  0  0  0  0  0  0  0  0  0  0  0
  -12.8100  -18.7240   -0.6340 C   0  0  2  0  0  0  0  0  0  0  0  0
  -11.8370  -18.8560    0.5200 C   0  0  0  0  0  0  0  0  0  0  0  0
  -11.3610  -17.8280    1.0050 O   0  0  0  0  0  0  0  0  0  0  0  0
  -14.1650  -19.3310   -0.2350 C   0  0  0  0  0  0  0  0  0  0  0  0
  -15.2980  -18.3300   -0.3970 C   0  0  0  0  0  0  0  0  0  0  0  0
  -14.4710  -20.6280   -0.9720 C   0  0  0  0  0  0  0  0  0  0  0  0
   -9.1260  -19.7380    0.0520 N   0  0  0  0  0  0  0  0  0  0  0  0
   -7.8850  -19.6930   -0.7430 C   0  0  2  0  0  0  0  0  0  0  0  0
   -7.6790  -18.2340   -1.1390 C   0  0  0  0  0  0  0  0  0  0  0  0
   -6.7770  -17.9490   -1.9350 O   0  0  0  0  0  0  0  0  0  0  0  0
   -7.9730  -20.6490   -1.9350 C   0  0  0  0  0  0  0  0  0  0  0  0
   -7.8990  -22.1140   -1.5890 C   0  0  0  0  0  0  0  0  0  0  0  0
   -6.7200  -22.6860   -1.1490 C   0  0  0  0  0  0  0  0  0  0  0  0
   -9.0100  -22.9290   -1.7010 C   0  0  0  0  0  0  0  0  0  0  0  0
   -6.6450  -24.0320   -0.8340 C   0  0  0  0  0  0  0  0  0  0  0  0
   -8.9540  -24.2760   -1.3900 C   0  0  0  0  0  0  0  0  0  0  0  0
   -7.7660  -24.8300   -0.9530 C   0  0  0  0  0  0  0  0  0  0  0  0
   -7.7080  -26.1570   -0.6410 O   0  0  0  0  0  0  0  0  0  0  0  0
  2  1  1  6
  3  2  1  0
  4  3  2  0
  5  2  1  0
  6  5  1  0
  7  6  2  0
  8  6  1  0
  9  7  1  0
 10  8  2  0
 11 10  1  0
 11  9  2  0
 12 11  1  0
 14 13  1  6
 15 14  1  0
 16 15  2  0
 17 14  1  0
 18 17  1  0
 19 18  2  0
 20 18  1  0
 21 19  1  0
 22 20  2  0
 23 22  1  0
 23 21  2  0
 24 23  1  0
 26 25  1  1
 27 26  1  0
 28 27  2  0
 29 26  1  0
 30 29  1  0
 31 30  1  0
 32 31  2  0
 33 31  1  0
 34 27  1  0
 35 34  1  0
 36 35  1  0
 37 36  2  0
 35 38  1  6
 39 38  1  0
 40 36  1  0
 41 40  1  0
 42 41  1  0
 43 42  2  0
 41 44  1  1
 45 44  1  0
 46 45  2  0
 47 45  1  0
 48 46  1  0
 49 47  2  0
 50 48  2  0
 50 49  1  0
 51 50  1  0
 52 42  1  0
 53 52  1  0
 54 53  1  0
 55 54  2  0
 57 56  1  1
 58 57  1  0
 59 58  2  0
 60 57  1  0
 61 60  1  0
 62 61  1  0
 63 62  2  0
 64 62  1  0
 66 65  1  1
 67 66  1  0
 68 67  2  0
 69 66  1  0
 70 69  1  0
 69 71  1  6
 72 67  1  0
 73 72  1  0
 74 73  1  0
 75 74  2  0
 73 76  1  1
 77 76  1  0
 78 77  2  0
 79 77  1  0
 80 78  1  0
 81 79  2  0
 82 80  2  0
 82 81  1  0
 83 82  1  0
 84 74  1  0
 85 84  1  0
 86 85  1  0
 87 86  2  0
 88 86  1  0
 89 88  1  6
 90 89  1  0
 91 90  2  0
 92 89  1  0
 93 92  1  0
 94 92  1  0
 96 95  1  6
 97 96  1  0
 98 97  2  0
 99 96  1  0
100 99  1  0
101100  2  0
102100  1  0
103101  1  0
104102  2  0
105104  1  0
105103  2  0
106105  1  0
M  END
$$$$
