
     RDKit          3D

145144  0  0  0  0  0  0  0  0999 V2000
  -31.6490    5.8220  -10.1550 N   0  0  0  0  0  0  0  0  0  0  0  0
  -32.7000    4.8070  -10.1070 C   0  0  2  0  0  0  0  0  0  0  0  0
  -33.4380    4.7220  -11.4390 C   0  0  0  0  0  0  0  0  0  0  0  0
  -33.7870    3.6310  -11.8910 O   0  0  0  0  0  0  0  0  0  0  0  0
  -33.7130    5.1200   -8.9870 C   0  0  0  0  0  0  0  0  0  0  0  0
  -33.2350    5.3650   -7.5120 C   0  0  0  0  0  0  0  0  0  0  0  0
  -32.2350    6.5420   -7.2680 C   0  0  0  0  0  0  0  0  0  0  0  0
  -32.6680    7.9280   -7.6090 C   0  0  0  0  0  0  0  0  0  0  0  0
  -31.3980    8.6450   -7.5280 N   0  0  0  0  0  0  0  0  0  0  0  0
  -32.3070    1.8580  -14.6370 N   0  0  0  0  0  0  0  0  0  0  0  0
  -33.1960    0.7020  -14.6570 C   0  0  2  0  0  0  0  0  0  0  0  0
  -34.5370    0.9350  -15.3220 C   0  0  0  0  0  0  0  0  0  0  0  0
  -35.3110   -0.0240  -15.4510 O   0  0  0  0  0  0  0  0  0  0  0  0
  -33.4330    0.2020  -13.2250 C   0  0  0  0  0  0  0  0  0  0  0  0
  -32.1240    0.0580  -12.5340 C   0  0  0  0  0  0  0  0  0  0  0  0
  -31.0890   -0.5780  -13.1630 C   0  0  0  0  0  0  0  0  0  0  0  0
  -31.8950    0.6110  -11.2940 C   0  0  0  0  0  0  0  0  0  0  0  0
  -29.8830   -0.6910  -12.5870 C   0  0  0  0  0  0  0  0  0  0  0  0
  -30.6720    0.4980  -10.6960 C   0  0  0  0  0  0  0  0  0  0  0  0
  -29.6650   -0.1560  -11.3590 C   0  0  0  0  0  0  0  0  0  0  0  0
  -28.4080   -0.2920  -10.8250 O   0  0  0  0  0  0  0  0  0  0  0  0
  -39.2030    0.4820  -11.6440 N   0  0  0  0  0  0  0  0  0  0  0  0
  -38.4150   -0.7090  -11.3780 C   0  0  2  0  0  0  0  0  0  0  0  0
  -37.2420   -0.2960  -10.5040 C   0  0  0  0  0  0  0  0  0  0  0  0
  -36.4880    0.6130  -10.8680 O   0  0  0  0  0  0  0  0  0  0  0  0
  -37.9260   -1.3550  -12.6710 C   0  0  0  0  0  0  0  0  0  0  0  0
  -37.0620   -2.5900  -12.4570 C   0  0  0  0  0  0  0  0  0  0  0  0
  -36.6610   -3.2240  -13.7910 C   0  0  0  0  0  0  0  0  0  0  0  0
  -37.8250   -3.4860  -14.6410 N   0  0  0  0  0  0  0  0  0  0  0  0
  -38.5830   -4.5730  -14.5500 C   0  0  0  0  0  0  0  0  0  0  0  0
  -38.3020   -5.5070  -13.6520 N   0  0  0  0  0  0  0  0  0  0  0  0
  -39.6220   -4.7240  -15.3540 N   0  0  0  0  0  0  0  0  0  0  0  0
  -37.1190   -0.9360   -9.3370 N   0  0  0  0  0  0  0  0  0  0  0  0
  -36.0910   -0.6300   -8.3530 C   0  0  2  0  0  0  0  0  0  0  0  0
  -34.8840   -1.5480   -8.4380 C   0  0  0  0  0  0  0  0  0  0  0  0
  -33.7650   -1.1010   -8.1810 O   0  0  0  0  0  0  0  0  0  0  0  0
  -36.6940   -0.6940   -6.9460 C   0  0  0  0  0  0  0  0  0  0  0  0
  -35.8090   -0.5930   -5.7050 C   0  0  0  0  0  0  0  0  0  0  0  0
  -35.0580    0.7160   -5.6230 C   0  0  0  0  0  0  0  0  0  0  0  0
  -36.6860   -0.7520   -4.5080 C   0  0  0  0  0  0  0  0  0  0  0  0
  -35.0640   -2.8000   -8.8400 N   0  0  0  0  0  0  0  0  0  0  0  0
  -33.9820   -3.7730   -8.8570 C   0  0  2  0  0  0  0  0  0  0  0  0
  -33.7250   -4.2550  -10.2760 C   0  0  0  0  0  0  0  0  0  0  0  0
  -34.6640   -4.5040  -11.0480 O   0  0  0  0  0  0  0  0  0  0  0  0
  -34.2990   -4.9740   -7.9680 C   0  0  0  0  0  0  0  0  0  0  0  0
  -34.5320   -4.6150   -6.5430 C   0  0  0  0  0  0  0  0  0  0  0  0
  -33.5730   -3.9520   -5.8230 C   0  0  0  0  0  0  0  0  0  0  0  0
  -35.7170   -4.9290   -5.9250 C   0  0  0  0  0  0  0  0  0  0  0  0
  -33.7910   -3.6150   -4.5270 C   0  0  0  0  0  0  0  0  0  0  0  0
  -35.9300   -4.5960   -4.6160 C   0  0  0  0  0  0  0  0  0  0  0  0
  -34.9630   -3.9410   -3.9210 C   0  0  0  0  0  0  0  0  0  0  0  0
  -32.4480   -4.3900  -10.6110 N   0  0  0  0  0  0  0  0  0  0  0  0
  -32.0730   -4.8950  -11.9210 C   0  0  2  0  0  0  0  0  0  0  0  0
  -30.6100   -5.2880  -11.8110 C   0  0  0  0  0  0  0  0  0  0  0  0
  -29.8400   -4.5950  -11.1400 O   0  0  0  0  0  0  0  0  0  0  0  0
  -32.2880   -3.8280  -12.9970 C   0  0  0  0  0  0  0  0  0  0  0  0
  -32.8820   -4.3530  -14.2650 C   0  0  0  0  0  0  0  0  0  0  0  0
  -32.9580   -3.2860  -15.3140 C   0  0  0  0  0  0  0  0  0  0  0  0
  -33.1890   -3.8180  -16.6580 N   0  0  0  0  0  0  0  0  0  0  0  0
  -32.3200   -4.5090  -17.3900 C   0  0  0  0  0  0  0  0  0  0  0  0
  -31.1140   -4.8090  -16.9200 N   0  0  0  0  0  0  0  0  0  0  0  0
  -32.6780   -4.9140  -18.6020 N   0  0  0  0  0  0  0  0  0  0  0  0
  -30.2280   -6.4090  -12.4300 N   0  0  0  0  0  0  0  0  0  0  0  0
  -28.8350   -6.8330  -12.3140 C   0  0  2  0  0  0  0  0  0  0  0  0
  -27.9150   -5.9330  -13.1290 C   0  0  0  0  0  0  0  0  0  0  0  0
  -26.7960   -5.6340  -12.6970 O   0  0  0  0  0  0  0  0  0  0  0  0
  -28.7040   -8.2820  -12.7800 C   0  0  0  0  0  0  0  0  0  0  0  0
  -28.9250   -9.3680  -11.7150 C   0  0  0  0  0  0  0  0  0  0  0  0
  -28.7890  -10.7640  -12.3680 C   0  0  0  0  0  0  0  0  0  0  0  0
  -29.8010  -10.8880  -13.5670 C   0  0  0  0  0  0  0  0  0  0  0  0
  -29.7800  -12.1520  -14.3870 N   0  0  0  0  0  0  0  0  0  0  0  0
  -36.9360  -10.6930   -8.2740 N   0  0  0  0  0  0  0  0  0  0  0  0
  -35.5280  -10.3180   -8.2980 C   0  0  2  0  0  0  0  0  0  0  0  0
  -34.7470  -11.1490   -7.2930 C   0  0  0  0  0  0  0  0  0  0  0  0
  -35.1560  -11.2540   -6.1400 O   0  0  0  0  0  0  0  0  0  0  0  0
  -35.3690   -8.8350   -7.9810 C   0  0  0  0  0  0  0  0  0  0  0  0
  -33.9380   -8.4190   -8.0210 C   0  0  0  0  0  0  0  0  0  0  0  0
  -33.2550   -8.3890   -9.2150 C   0  0  0  0  0  0  0  0  0  0  0  0
  -33.2520   -8.1030   -6.8610 C   0  0  0  0  0  0  0  0  0  0  0  0
  -31.9360   -8.0310   -9.2760 C   0  0  0  0  0  0  0  0  0  0  0  0
  -31.9200   -7.7450   -6.9030 C   0  0  0  0  0  0  0  0  0  0  0  0
  -31.2660   -7.7120   -8.1260 C   0  0  0  0  0  0  0  0  0  0  0  0
  -29.9400   -7.3540   -8.2070 O   0  0  0  0  0  0  0  0  0  0  0  0
  -33.6410  -11.7520   -7.7220 N   0  0  0  0  0  0  0  0  0  0  0  0
  -32.8260  -12.5780   -6.8290 C   0  0  2  0  0  0  0  0  0  0  0  0
  -31.6810  -11.7260   -6.2780 C   0  0  0  0  0  0  0  0  0  0  0  0
  -30.6390  -11.5650   -6.9180 O   0  0  0  0  0  0  0  0  0  0  0  0
  -32.3070  -13.8180   -7.5470 C   0  0  0  0  0  0  0  0  0  0  0  0
  -31.2510  -14.5920   -6.7730 C   0  0  0  0  0  0  0  0  0  0  0  0
  -30.8410  -15.8800   -7.4660 C   0  0  0  0  0  0  0  0  0  0  0  0
  -31.6750  -16.5880   -8.0270 O   0  0  0  0  0  0  0  0  0  0  0  0
  -29.5490  -16.1830   -7.4400 N   0  0  0  0  0  0  0  0  0  0  0  0
  -31.8610  -11.2180   -5.0580 N   0  0  0  0  0  0  0  0  0  0  0  0
  -30.8360  -10.4180   -4.4010 C   0  0  2  0  0  0  0  0  0  0  0  0
  -29.8020  -11.2670   -3.6910 C   0  0  0  0  0  0  0  0  0  0  0  0
  -28.7430  -10.7460   -3.3200 O   0  0  0  0  0  0  0  0  0  0  0  0
  -31.4760   -9.4640   -3.3930 C   0  0  0  0  0  0  0  0  0  0  0  0
  -30.0750  -12.5590   -3.5150 N   0  0  0  0  0  0  0  0  0  0  0  0
  -29.2310  -13.4340   -2.7410 C   0  0  0  0  0  0  0  0  0  0  0  0
  -28.4910  -14.4410   -3.6030 C   0  0  0  0  0  0  0  0  0  0  0  0
  -28.6720  -14.5250   -4.8150 O   0  0  0  0  0  0  0  0  0  0  0  0
  -27.6270  -15.2060   -2.9330 N   0  0  0  0  0  0  0  0  0  0  0  0
  -27.0340  -16.3760   -3.5640 C   0  0  2  0  0  0  0  0  0  0  0  0
  -28.1100  -17.3910   -3.9630 C   0  0  0  0  0  0  0  0  0  0  0  0
  -28.0970  -17.9130   -5.0850 O   0  0  0  0  0  0  0  0  0  0  0  0
  -25.9920  -16.9980   -2.6210 C   0  0  0  0  0  0  0  0  0  0  0  0
  -26.1360  -16.5650   -1.2600 O   0  0  0  0  0  0  0  0  0  0  0  0
  -29.0890  -17.6430   -3.0650 N   0  0  0  0  0  0  0  0  0  0  0  0
  -30.1670  -18.6260   -3.1880 C   0  0  2  0  0  0  0  0  0  0  0  0
  -31.2590  -18.1430   -4.1560 C   0  0  0  0  0  0  0  0  0  0  0  0
  -31.6510  -16.9700   -4.1120 O   0  0  0  0  0  0  0  0  0  0  0  0
  -30.7670  -18.8970   -1.8070 C   0  0  2  0  0  0  0  0  0  0  0  0
  -31.2960  -17.6790   -1.2600 O   0  0  0  0  0  0  0  0  0  0  0  0
  -29.6810  -19.4150   -0.8690 C   0  0  0  0  0  0  0  0  0  0  0  0
  -37.1530  -13.2960    1.5470 N   0  0  0  0  0  0  0  0  0  0  0  0
  -35.9010  -12.6270    1.8590 C   0  0  2  0  0  0  0  0  0  0  0  0
  -34.9140  -12.8610    0.7210 C   0  0  0  0  0  0  0  0  0  0  0  0
  -34.6720  -14.0080    0.3350 O   0  0  0  0  0  0  0  0  0  0  0  0
  -35.3390  -13.1330    3.1870 C   0  0  0  0  0  0  0  0  0  0  0  0
  -34.0270  -12.5320    3.5400 C   0  0  0  0  0  0  0  0  0  0  0  0
  -33.9540  -11.2250    3.9730 C   0  0  0  0  0  0  0  0  0  0  0  0
  -32.8650  -13.2540    3.3910 C   0  0  0  0  0  0  0  0  0  0  0  0
  -32.7340  -10.6580    4.2790 C   0  0  0  0  0  0  0  0  0  0  0  0
  -31.6510  -12.6980    3.6850 C   0  0  0  0  0  0  0  0  0  0  0  0
  -31.5800  -11.4000    4.1310 C   0  0  0  0  0  0  0  0  0  0  0  0
  -34.3360  -11.7760    0.2010 N   0  0  0  0  0  0  0  0  0  0  0  0
  -33.5080  -11.7820   -1.0010 C   0  0  2  0  0  0  0  0  0  0  0  0
  -34.2940  -12.1500   -2.2610 C   0  0  0  0  0  0  0  0  0  0  0  0
  -33.7020  -12.5210   -3.2830 O   0  0  0  0  0  0  0  0  0  0  0  0
  -32.3250  -12.7350   -0.8380 C   0  0  0  0  0  0  0  0  0  0  0  0
  -31.2600  -12.1670    0.0230 C   0  0  0  0  0  0  0  0  0  0  0  0
  -31.4420  -11.1220    0.6380 O   0  0  0  0  0  0  0  0  0  0  0  0
  -30.1410  -12.8590    0.1050 N   0  0  0  0  0  0  0  0  0  0  0  0
  -37.2090  -10.2580   -4.1920 N   0  0  0  0  0  0  0  0  0  0  0  0
  -37.9880   -9.0370   -4.1400 C   0  0  2  0  0  0  0  0  0  0  0  0
  -38.7000   -8.8320   -5.4560 C   0  0  0  0  0  0  0  0  0  0  0  0
  -38.1370   -9.0990   -6.5230 O   0  0  0  0  0  0  0  0  0  0  0  0
  -37.0950   -7.8450   -3.8360 C   0  0  0  0  0  0  0  0  0  0  0  0
  -36.3490   -8.0390   -2.5560 C   0  0  0  0  0  0  0  0  0  0  0  0
  -37.0210   -8.1020   -1.3580 C   0  0  0  0  0  0  0  0  0  0  0  0
  -34.9810   -8.2050   -2.5490 C   0  0  0  0  0  0  0  0  0  0  0  0
  -36.3550   -8.2930   -0.1870 C   0  0  0  0  0  0  0  0  0  0  0  0
  -34.3020   -8.3990   -1.3760 C   0  0  0  0  0  0  0  0  0  0  0  0
  -34.9960   -8.4400   -0.1960 C   0  0  0  0  0  0  0  0  0  0  0  0
  -34.3430   -8.6320    0.9980 O   0  0  0  0  0  0  0  0  0  0  0  0
  2  1  1  6
  3  2  1  0
  4  3  2  0
  5  2  1  0
  6  5  1  0
  7  6  1  0
  8  7  1  0
  9  8  1  0
 11 10  1  1
 12 11  1  0
 13 12  2  0
 14 11  1  0
 15 14  1  0
 16 15  2  0
 17 15  1  0
 18 16  1  0
 19 17  2  0
 20 18  2  0
 20 19  1  0
 21 20  1  0
 23 22  1  6
 24 23  1  0
 25 24  2  0
 26 23  1  0
 27 26  1  0
 28 27  1  0
 29 28  1  0
 30 29  1  0
 31 30  1  0
 32 30  2  0
 33 24  1  0
 34 33  1  0
 35 34  1  0
 36 35  2  0
 34 37  1  1
 38 37  1  0
 39 38  1  0
 40 38  1  0
 41 35  1  0
 42 41  1  0
 43 42  1  0
 44 43  2  0
 42 45  1  1
 46 45  1  0
 47 46  2  0
 48 46  1  0
 49 47  1  0
 50 48  2  0
 51 50  1  0
 51 49  2  0
 52 43  1  0
 53 52  1  0
 54 53  1  0
 55 54  2  0
 53 56  1  6
 57 56  1  0
 58 57  1  0
 59 58  1  0
 60 59  1  0
 61 60  1  0
 62 60  2  0
 63 54  1  0
 64 63  1  0
 65 64  1  0
 66 65  2  0
 64 67  1  6
 68 67  1  0
 69 68  1  0
 70 69  1  0
 71 70  1  0
 73 72  1  1
 74 73  1  0
 75 74  2  0
 76 73  1  0
 77 76  1  0
 78 77  2  0
 79 77  1  0
 80 78  1  0
 81 79  2  0
 82 81  1  0
 82 80  2  0
 83 82  1  0
 84 74  1  0
 85 84  1  0
 86 85  1  0
 87 86  2  0
 85 88  1  6
 89 88  1  0
 90 89  1  0
 91 90  2  0
 92 90  1  0
 93 86  1  0
 94 93  1  0
 95 94  1  0
 96 95  2  0
 94 97  1  1
 98 95  1  0
 99 98  1  0
100 99  1  0
101100  2  0
102100  1  0
103102  1  0
104103  1  0
105104  2  0
103106  1  1
107106  1  0
108104  1  0
109108  1  1
110109  1  0
111110  2  0
112109  1  0
113112  1  0
112114  1  1
116115  1  6
117116  1  0
118117  2  0
119116  1  0
120119  1  0
121120  2  0
122120  1  0
123121  1  0
124122  2  0
125123  2  0
125124  1  0
126117  1  0
127126  1  0
128127  1  0
129128  2  0
127130  1  1
131130  1  0
132131  2  0
133131  1  0
135134  1  6
136135  1  0
137136  2  0
138135  1  0
139138  1  0
140139  2  0
141139  1  0
142140  1  0
143141  2  0
144143  1  0
144142  2  0
145144  1  0
M  END
$$$$
