
     RDKit          3D

113113  0  0  0  0  0  0  0  0999 V2000
  -40.9110   11.2670  -10.5100 N   0  0  0  0  0  0  0  0  0  0  0  0
  -40.9510   12.3210   -9.5100 C   0  0  2  0  0  0  0  0  0  0  0  0
  -40.0230   13.4580   -9.9110 C   0  0  0  0  0  0  0  0  0  0  0  0
  -39.1100   13.2940  -10.7240 O   0  0  0  0  0  0  0  0  0  0  0  0
  -40.5750   11.7920   -8.1210 C   0  0  0  0  0  0  0  0  0  0  0  0
  -41.5780   10.7860   -7.5670 C   0  0  0  0  0  0  0  0  0  0  0  0
  -41.5000   10.6440   -6.0450 C   0  0  0  0  0  0  0  0  0  0  0  0
  -40.1320   10.4330   -5.6090 N   0  0  0  0  0  0  0  0  0  0  0  0
  -39.7610    9.3880   -4.8900 C   0  0  0  0  0  0  0  0  0  0  0  0
  -40.6750    8.4920   -4.5330 N   0  0  0  0  0  0  0  0  0  0  0  0
  -38.4910    9.2490   -4.5240 N   0  0  0  0  0  0  0  0  0  0  0  0
  -51.3570    5.0110   -6.7100 N   0  0  0  0  0  0  0  0  0  0  0  0
  -50.3370    3.9810   -6.8520 C   0  0  2  0  0  0  0  0  0  0  0  0
  -50.3160    3.3770   -8.2520 C   0  0  0  0  0  0  0  0  0  0  0  0
  -49.5510    2.4400   -8.5000 O   0  0  0  0  0  0  0  0  0  0  0  0
  -50.5380    2.9140   -5.7780 C   0  0  0  0  0  0  0  0  0  0  0  0
  -50.3330    3.4660   -4.3760 C   0  0  0  0  0  0  0  0  0  0  0  0
  -49.4240    4.4970   -4.1510 C   0  0  0  0  0  0  0  0  0  0  0  0
  -51.0400    2.9670   -3.2780 C   0  0  0  0  0  0  0  0  0  0  0  0
  -49.2080    5.0220   -2.8690 C   0  0  0  0  0  0  0  0  0  0  0  0
  -50.8390    3.4890   -1.9850 C   0  0  0  0  0  0  0  0  0  0  0  0
  -49.9140    4.5200   -1.7890 C   0  0  0  0  0  0  0  0  0  0  0  0
  -49.6790    5.0540   -0.5310 O   0  0  0  0  0  0  0  0  0  0  0  0
  -42.2580    2.1430  -10.7160 N   0  0  0  0  0  0  0  0  0  0  0  0
  -40.9030    2.1470  -11.2380 C   0  0  2  0  0  0  0  0  0  0  0  0
  -40.2330    0.8250  -10.8810 C   0  0  0  0  0  0  0  0  0  0  0  0
  -40.6430    0.1210   -9.9540 O   0  0  0  0  0  0  0  0  0  0  0  0
  -40.0950    3.3370  -10.6950 C   0  0  0  0  0  0  0  0  0  0  0  0
  -39.9190    3.2980   -9.2080 C   0  0  0  0  0  0  0  0  0  0  0  0
  -40.9300    3.7250   -8.3680 C   0  0  0  0  0  0  0  0  0  0  0  0
  -38.7540    2.7970   -8.6250 C   0  0  0  0  0  0  0  0  0  0  0  0
  -40.7880    3.6740   -6.9790 C   0  0  0  0  0  0  0  0  0  0  0  0
  -38.6070    2.7380   -7.2330 C   0  0  0  0  0  0  0  0  0  0  0  0
  -39.6310    3.1830   -6.4230 C   0  0  0  0  0  0  0  0  0  0  0  0
  -39.5270    3.1440   -5.0570 O   0  0  0  0  0  0  0  0  0  0  0  0
  -44.9100    4.2950   -6.5860 N   0  0  0  0  0  0  0  0  0  0  0  0
  -44.6770    5.6830   -6.2140 C   0  0  2  0  0  0  0  0  0  0  0  0
  -45.7870    6.1120   -5.2770 C   0  0  0  0  0  0  0  0  0  0  0  0
  -46.9600    5.9380   -5.5990 O   0  0  0  0  0  0  0  0  0  0  0  0
  -44.6980    6.6030   -7.4330 C   0  0  0  0  0  0  0  0  0  0  0  0
  -43.4310    6.7600   -8.2400 C   0  0  0  0  0  0  0  0  0  0  0  0
  -42.2290    7.1150   -7.6540 C   0  0  0  0  0  0  0  0  0  0  0  0
  -43.4560    6.5820   -9.6150 C   0  0  0  0  0  0  0  0  0  0  0  0
  -41.0810    7.2710   -8.4240 C   0  0  0  0  0  0  0  0  0  0  0  0
  -42.3220    6.7310  -10.3850 C   0  0  0  0  0  0  0  0  0  0  0  0
  -41.1460    7.0710   -9.7920 C   0  0  0  0  0  0  0  0  0  0  0  0
  -40.0430    7.2050  -10.5920 O   0  0  0  0  0  0  0  0  0  0  0  0
  -45.4330    6.6960   -4.1430 N   0  0  0  0  0  0  0  0  0  0  0  0
  -46.4720    7.2280   -3.2800 C   0  0  0  0  0  0  0  0  0  0  0  0
  -46.7980    8.6630   -3.6420 C   0  0  0  0  0  0  0  0  0  0  0  0
  -46.0310    9.5740   -3.3150 O   0  0  0  0  0  0  0  0  0  0  0  0
  -47.9120    8.8860   -4.3340 N   0  0  0  0  0  0  0  0  0  0  0  0
  -48.2250   10.2000   -4.8830 C   0  0  2  0  0  0  0  0  0  0  0  0
  -49.3870   10.8280   -4.1330 C   0  0  0  0  0  0  0  0  0  0  0  0
  -50.5460   10.6790   -4.5200 O   0  0  0  0  0  0  0  0  0  0  0  0
  -48.5150   10.0950   -6.3530 C   0  0  0  0  0  0  0  0  0  0  0  0
  -47.2980   10.1970   -7.1940 C   0  0  0  0  0  0  0  0  0  0  0  0
  -46.3890   11.2020   -6.9670 C   0  0  0  0  0  0  0  0  0  0  0  0
  -47.0430    9.2930   -8.1910 C   0  0  0  0  0  0  0  0  0  0  0  0
  -45.2610   11.3110   -7.7310 C   0  0  0  0  0  0  0  0  0  0  0  0
  -45.9080    9.4020   -8.9560 C   0  0  0  0  0  0  0  0  0  0  0  0
  -45.0180   10.4120   -8.7230 C   0  0  0  0  0  0  0  0  0  0  0  0
  -49.0680   11.5270   -3.0560 N   0  0  0  0  0  0  0  0  0  0  0  0
  -49.9690   12.3490   -2.2720 C   0  0  2  0  0  0  0  0  0  0  0  0
  -49.8770   13.7950   -2.7240 C   0  0  0  0  0  0  0  0  0  0  0  0
  -48.8100   14.2410   -3.1590 O   0  0  0  0  0  0  0  0  0  0  0  0
  -49.6350   12.2730   -0.7820 C   0  0  0  0  0  0  0  0  0  0  0  0
  -50.6410   11.5010    0.0510 C   0  0  0  0  0  0  0  0  0  0  0  0
  -49.9770   10.7710    1.2150 C   0  0  0  0  0  0  0  0  0  0  0  0
  -49.4740    9.6550    1.0420 O   0  0  0  0  0  0  0  0  0  0  0  0
  -49.9570   11.4030    2.4060 N   0  0  0  0  0  0  0  0  0  0  0  0
  -49.9100   16.1130   -0.6440 N   0  0  0  0  0  0  0  0  0  0  0  0
  -49.1470   16.7080    0.4430 C   0  0  2  0  0  0  0  0  0  0  0  0
  -47.6410   16.6250    0.2230 C   0  0  0  0  0  0  0  0  0  0  0  0
  -46.8900   17.2750    0.9580 O   0  0  0  0  0  0  0  0  0  0  0  0
  -49.5020   16.0170    1.7610 C   0  0  2  0  0  0  0  0  0  0  0  0
  -48.3730   15.2460    2.2210 O   0  0  0  0  0  0  0  0  0  0  0  0
  -50.7200   15.0910    1.5640 C   0  0  0  0  0  0  0  0  0  0  0  0
  -47.1810   15.8490   -0.7560 N   0  0  0  0  0  0  0  0  0  0  0  0
  -45.7560   15.5820   -0.8660 C   0  0  2  0  0  0  0  0  0  0  0  0
  -44.9980   16.8390   -1.2390 C   0  0  0  0  0  0  0  0  0  0  0  0
  -45.5580   17.8080   -1.7530 O   0  0  0  0  0  0  0  0  0  0  0  0
  -45.4660   14.5220   -1.9150 C   0  0  0  0  0  0  0  0  0  0  0  0
  -46.0990   13.2180   -1.5930 C   0  0  0  0  0  0  0  0  0  0  0  0
  -46.3520   12.4120   -2.4860 O   0  0  0  0  0  0  0  0  0  0  0  0
  -46.3740   12.9890   -0.3050 N   0  0  0  0  0  0  0  0  0  0  0  0
  -43.7000   16.8080   -0.9850 N   0  0  0  0  0  0  0  0  0  0  0  0
  -42.8530   17.8560   -1.4940 C   0  0  0  0  0  0  0  0  0  0  0  0
  -42.8170   17.8540   -3.0080 C   0  0  0  0  0  0  0  0  0  0  0  0
  -43.2150   16.9000   -3.6730 O   0  0  0  0  0  0  0  0  0  0  0  0
  -42.3320   18.9640   -3.5560 N   0  0  0  0  0  0  0  0  0  0  0  0
  -42.2820   19.1080   -5.0020 C   0  0  2  0  0  0  0  0  0  0  0  0
  -41.4050   18.0220   -5.5900 C   0  0  0  0  0  0  0  0  0  0  0  0
  -41.6990   17.4780   -6.6570 O   0  0  0  0  0  0  0  0  0  0  0  0
  -41.7870   20.5100   -5.3730 C   0  0  0  0  0  0  0  0  0  0  0  0
  -41.9710   20.7490   -6.8350 C   0  0  0  0  0  0  0  0  0  0  0  0
  -42.5530   21.5300   -4.5600 C   0  0  0  0  0  0  0  0  0  0  0  0
  -40.3120   17.6900   -4.9050 N   0  0  0  0  0  0  0  0  0  0  0  0
  -39.4850   16.5900   -5.3590 C   0  0  0  0  0  0  0  0  0  0  0  0
  -40.2700   15.3000   -5.4640 C   0  0  0  0  0  0  0  0  0  0  0  0
  -40.1000   14.5360   -6.4130 O   0  0  0  0  0  0  0  0  0  0  0  0
  -41.1550   15.0540   -4.5030 N   0  0  0  0  0  0  0  0  0  0  0  0
  -41.9920   13.8610   -4.4550 C   0  0  2  0  0  0  0  0  0  0  0  0
  -43.3350   14.0090   -5.1880 C   0  0  0  0  0  0  0  0  0  0  0  0
  -44.2220   13.1600   -5.0120 O   0  0  0  0  0  0  0  0  0  0  0  0
  -42.2300   13.4630   -3.0000 C   0  0  0  0  0  0  0  0  0  0  0  0
  -41.2070   12.5070   -2.4770 C   0  0  0  0  0  0  0  0  0  0  0  0
  -39.8860   12.8870   -2.3240 C   0  0  0  0  0  0  0  0  0  0  0  0
  -41.5750   11.2170   -2.1100 C   0  0  0  0  0  0  0  0  0  0  0  0
  -38.9380   11.9910   -1.8350 C   0  0  0  0  0  0  0  0  0  0  0  0
  -40.6530   10.3130   -1.6110 C   0  0  0  0  0  0  0  0  0  0  0  0
  -39.3280   10.6960   -1.4790 C   0  0  0  0  0  0  0  0  0  0  0  0
  -38.4000    9.7860   -0.9870 O   0  0  0  0  0  0  0  0  0  0  0  0
  2  1  1  6
  3  2  1  0
  4  3  2  0
  5  2  1  0
  6  5  1  0
  7  6  1  0
  8  7  1  0
  9  8  1  0
 10  9  1  0
 11  9  2  0
 13 12  1  6
 14 13  1  0
 15 14  2  0
 16 13  1  0
 17 16  1  0
 18 17  2  0
 19 17  1  0
 20 18  1  0
 21 19  2  0
 22 21  1  0
 22 20  2  0
 23 22  1  0
 25 24  1  1
 26 25  1  0
 27 26  2  0
 28 25  1  0
 29 28  1  0
 30 29  2  0
 31 29  1  0
 32 30  1  0
 33 31  2  0
 34 33  1  0
 34 32  2  0
 35 34  1  0
 37 36  1  6
 38 37  1  0
 39 38  2  0
 40 37  1  0
 41 40  1  0
 42 41  2  0
 43 41  1  0
 44 42  1  0
 45 43  2  0
 46 45  1  0
 46 44  2  0
 47 46  1  0
 48 38  1  0
 49 48  1  0
 50 49  1  0
 51 50  2  0
 52 50  1  0
 53 52  1  0
 54 53  1  0
 55 54  2  0
 53 56  1  6
 57 56  1  0
 58 57  2  0
 59 57  1  0
 60 58  1  0
 61 59  2  0
 62 61  1  0
 62 60  2  0
 63 54  1  0
 64 63  1  0
 65 64  1  0
 66 65  2  0
 64 67  1  1
 68 67  1  0
 69 68  1  0
 70 69  2  0
 71 69  1  0
 73 72  1  6
 74 73  1  0
 75 74  2  0
 76 73  1  0
 77 76  1  0
 76 78  1  6
 79 74  1  0
 80 79  1  0
 81 80  1  0
 82 81  2  0
 80 83  1  6
 84 83  1  0
 85 84  2  0
 86 84  1  0
 87 81  1  0
 88 87  1  0
 89 88  1  0
 90 89  2  0
 91 89  1  0
 92 91  1  1
 93 92  1  0
 94 93  2  0
 95 92  1  0
 96 95  1  0
 97 95  1  0
 98 93  1  0
 99 98  1  0
100 99  1  0
101100  2  0
102100  1  0
103102  1  0
104103  1  0
105104  2  0
103106  1  1
107106  1  0
108107  2  0
109107  1  0
110108  1  0
111109  2  0
112111  1  0
112110  2  0
113112  1  0
M  END
$$$$
