
     RDKit          3D

138138  0  0  0  0  0  0  0  0999 V2000
  140.3740  141.9790  131.1510 N   0  0  0  0  0  0  0  0  0  0  0  0
  139.6540  143.0010  130.3380 C   0  0  2  0  0  0  0  0  0  0  0  0
  140.6500  143.9480  129.6610 C   0  0  0  0  0  0  0  0  0  0  0  0
  140.5150  144.1620  128.4410 O   0  0  0  0  0  0  0  0  0  0  0  0
  138.5860  143.7470  131.1420 C   0  0  0  0  0  0  0  0  0  0  0  0
  137.8300  144.7700  130.3220 C   0  0  0  0  0  0  0  0  0  0  0  0
  137.5050  144.5280  129.1610 O   0  0  0  0  0  0  0  0  0  0  0  0
  137.5350  145.9110  130.9210 N   0  0  0  0  0  0  0  0  0  0  0  0
  141.6130  144.4870  130.4100 N   0  0  0  0  0  0  0  0  0  0  0  0
  142.5460  145.4850  129.8260 C   0  0  2  0  0  0  0  0  0  0  0  0
  143.9370  144.8760  129.6570 C   0  0  0  0  0  0  0  0  0  0  0  0
  144.4310  144.2660  130.6200 O   0  0  0  0  0  0  0  0  0  0  0  0
  142.6110  146.7410  130.6970 C   0  0  0  0  0  0  0  0  0  0  0  0
  141.4700  147.7170  130.4500 C   0  0  0  0  0  0  0  0  0  0  0  0
  140.9170  148.3100  131.7300 C   0  0  0  0  0  0  0  0  0  0  0  0
  139.9650  147.4330  132.3990 N   0  0  0  0  0  0  0  0  0  0  0  0
  140.2670  146.6050  133.3910 C   0  0  0  0  0  0  0  0  0  0  0  0
  141.5070  146.5390  133.8410 N   0  0  0  0  0  0  0  0  0  0  0  0
  139.3300  145.8480  133.9320 N   0  0  0  0  0  0  0  0  0  0  0  0
  144.5360  145.0400  128.4740 N   0  0  0  0  0  0  0  0  0  0  0  0
  145.9190  144.5540  128.2370 C   0  0  2  0  0  0  0  0  0  0  0  0
  146.8470  145.3060  129.1870 C   0  0  0  0  0  0  0  0  0  0  0  0
  147.8170  144.6990  129.6770 O   0  0  0  0  0  0  0  0  0  0  0  0
  146.3380  144.7580  126.8060 C   0  0  0  0  0  0  0  0  0  0  0  0
  146.4270  146.1380  126.4900 O   0  0  0  0  0  0  0  0  0  0  0  0
  146.5480  146.5840  129.4230 N   0  0  0  0  0  0  0  0  0  0  0  0
  147.3920  147.4070  130.3230 C   0  0  2  0  0  0  0  0  0  0  0  0
  147.3930  146.7570  131.7100 C   0  0  0  0  0  0  0  0  0  0  0  0
  148.4650  146.7350  132.3390 O   0  0  0  0  0  0  0  0  0  0  0  0
  146.9140  148.8580  130.3340 C   0  0  0  0  0  0  0  0  0  0  0  0
  147.1500  149.5770  129.0170 C   0  0  0  0  0  0  0  0  0  0  0  0
  148.3230  149.8740  128.7190 O   0  0  0  0  0  0  0  0  0  0  0  0
  146.1620  149.8260  128.2990 O   0  0  0  0  0  0  0  0  0  0  0  0
  140.0820  136.6100  128.4190 N   0  0  0  0  0  0  0  0  0  0  0  0
  141.2570  136.2270  127.5870 C   0  0  2  0  0  0  0  0  0  0  0  0
  142.0150  137.4590  127.0830 C   0  0  0  0  0  0  0  0  0  0  0  0
  143.2540  137.3800  126.9980 O   0  0  0  0  0  0  0  0  0  0  0  0
  140.8490  135.2570  126.4680 C   0  0  0  0  0  0  0  0  0  0  0  0
  140.3770  135.9180  125.2170 C   0  0  0  0  0  0  0  0  0  0  0  0
  141.2210  136.1750  124.1560 N   0  0  0  0  0  0  0  0  0  0  0  0
  139.1570  136.3620  124.8470 C   0  0  0  0  0  0  0  0  0  0  0  0
  140.5440  136.7570  123.1880 C   0  0  0  0  0  0  0  0  0  0  0  0
  139.2750  136.8830  123.5870 N   0  0  0  0  0  0  0  0  0  0  0  0
  141.3130  138.5490  126.7600 N   0  0  0  0  0  0  0  0  0  0  0  0
  141.9740  139.7220  126.1250 C   0  0  2  0  0  0  0  0  0  0  0  0
  143.0670  140.3490  126.9990 C   0  0  0  0  0  0  0  0  0  0  0  0
  144.1240  140.6960  126.4460 O   0  0  0  0  0  0  0  0  0  0  0  0
  140.9500  140.7860  125.7280 C   0  0  0  0  0  0  0  0  0  0  0  0
  139.5360  140.5820  126.2120 C   0  0  0  0  0  0  0  0  0  0  0  0
  138.6720  139.7240  125.5510 C   0  0  0  0  0  0  0  0  0  0  0  0
  139.0520  141.2910  127.2970 C   0  0  0  0  0  0  0  0  0  0  0  0
  137.3690  139.5500  125.9890 C   0  0  0  0  0  0  0  0  0  0  0  0
  137.7460  141.1230  127.7300 C   0  0  0  0  0  0  0  0  0  0  0  0
  136.9080  140.2510  127.0770 C   0  0  0  0  0  0  0  0  0  0  0  0
  142.8410  140.4960  128.3040 N   0  0  0  0  0  0  0  0  0  0  0  0
  143.8360  141.1910  129.1460 C   0  0  0  0  0  0  0  0  0  0  0  0
  145.1070  140.3780  129.3150 C   0  0  0  0  0  0  0  0  0  0  0  0
  145.0360  139.1440  129.1580 O   0  0  0  0  0  0  0  0  0  0  0  0
  146.2320  141.0310  129.6320 N   0  0  0  0  0  0  0  0  0  0  0  0
  147.5290  140.3010  129.7030 C   0  0  2  0  0  0  0  0  0  0  0  0
  147.7800  139.7420  131.1070 C   0  0  0  0  0  0  0  0  0  0  0  0
  147.6490  140.5100  132.0780 O   0  0  0  0  0  0  0  0  0  0  0  0
  148.6900  141.2250  129.3260 C   0  0  0  0  0  0  0  0  0  0  0  0
  148.7560  141.6360  127.8620 C   0  0  0  0  0  0  0  0  0  0  0  0
  150.1440  142.0630  127.4350 C   0  0  0  0  0  0  0  0  0  0  0  0
  150.1460  143.3090  126.5760 C   0  0  0  0  0  0  0  0  0  0  0  0
  149.7320  144.5030  127.3490 N   0  0  0  0  0  0  0  0  0  0  0  0
  148.7250  133.6930  129.6760 N   0  0  0  0  0  0  0  0  0  0  0  0
  149.9200  133.0550  129.0650 C   0  0  2  0  0  0  0  0  0  0  0  0
  150.6220  132.1920  130.1140 C   0  0  0  0  0  0  0  0  0  0  0  0
  150.2810  132.3130  131.3050 O   0  0  0  0  0  0  0  0  0  0  0  0
  150.8930  134.0920  128.5000 C   0  0  0  0  0  0  0  0  0  0  0  0
  150.3310  134.8500  127.3170 C   0  0  0  0  0  0  0  0  0  0  0  0
  149.1780  134.6560  126.9390 O   0  0  0  0  0  0  0  0  0  0  0  0
  151.1410  135.7110  126.7220 N   0  0  0  0  0  0  0  0  0  0  0  0
  155.3720  134.5830  130.2420 N   0  0  0  0  0  0  0  0  0  0  0  0
  155.4060  136.0670  130.1650 C   0  0  2  0  0  0  0  0  0  0  0  0
  154.2140  136.5870  129.3600 C   0  0  0  0  0  0  0  0  0  0  0  0
  153.9910  136.0800  128.2450 O   0  0  0  0  0  0  0  0  0  0  0  0
  156.7270  136.5460  129.5600 C   0  0  2  0  0  0  0  0  0  0  0  0
  157.7840  135.9910  130.3430 O   0  0  0  0  0  0  0  0  0  0  0  0
  156.8390  138.0530  129.5360 C   0  0  0  0  0  0  0  0  0  0  0  0
  153.4960  137.5750  129.9050 N   0  0  0  0  0  0  0  0  0  0  0  0
  152.3080  138.1300  129.2290 C   0  0  0  0  0  0  0  0  0  0  0  0
  152.6620  138.8400  127.9380 C   0  0  0  0  0  0  0  0  0  0  0  0
  151.9400  138.6520  126.9460 O   0  0  0  0  0  0  0  0  0  0  0  0
  153.7460  139.6190  127.9500 N   0  0  0  0  0  0  0  0  0  0  0  0
  154.1820  140.3220  126.7190 C   0  0  2  0  0  0  0  0  0  0  0  0
  155.3920  139.5850  126.1470 C   0  0  0  0  0  0  0  0  0  0  0  0
  156.4560  139.5760  126.7890 O   0  0  0  0  0  0  0  0  0  0  0  0
  154.5450  141.7750  127.0310 C   0  0  0  0  0  0  0  0  0  0  0  0
  154.7270  142.6500  125.8180 C   0  0  0  0  0  0  0  0  0  0  0  0
  153.6730  143.3880  125.3090 C   0  0  0  0  0  0  0  0  0  0  0  0
  155.9500  142.7430  125.1750 C   0  0  0  0  0  0  0  0  0  0  0  0
  153.8260  144.2000  124.1990 C   0  0  0  0  0  0  0  0  0  0  0  0
  156.1200  143.5460  124.0610 C   0  0  0  0  0  0  0  0  0  0  0  0
  155.0550  144.2800  123.5710 C   0  0  0  0  0  0  0  0  0  0  0  0
  155.2150  145.0760  122.4750 O   0  0  0  0  0  0  0  0  0  0  0  0
  155.2400  139.0350  124.9440 N   0  0  0  0  0  0  0  0  0  0  0  0
  156.3720  138.3190  124.3070 C   0  0  2  0  0  0  0  0  0  0  0  0
  157.0120  139.2600  123.2890 C   0  0  0  0  0  0  0  0  0  0  0  0
  156.3020  139.7150  122.3740 O   0  0  0  0  0  0  0  0  0  0  0  0
  155.8970  137.0020  123.6820 C   0  0  0  0  0  0  0  0  0  0  0  0
  156.8950  135.8990  123.7880 C   0  0  0  0  0  0  0  0  0  0  0  0
  156.9260  135.0350  124.8650 N   0  0  0  0  0  0  0  0  0  0  0  0
  157.8940  135.5150  122.9650 C   0  0  0  0  0  0  0  0  0  0  0  0
  157.9010  134.1640  124.7010 C   0  0  0  0  0  0  0  0  0  0  0  0
  158.5100  134.4380  123.5420 N   0  0  0  0  0  0  0  0  0  0  0  0
  158.3040  139.5360  123.4580 N   0  0  0  0  0  0  0  0  0  0  0  0
  159.0140  140.4480  122.5270 C   0  0  2  0  0  0  0  0  0  0  0  0
  160.2980  139.7510  122.0770 C   0  0  0  0  0  0  0  0  0  0  0  0
  160.8890  139.0370  122.9020 O   0  0  0  0  0  0  0  0  0  0  0  0
  159.0880  141.8770  123.0720 C   0  0  0  0  0  0  0  0  0  0  0  0
  160.1700  142.1810  124.0730 C   0  0  0  0  0  0  0  0  0  0  0  0
  160.0960  141.7330  125.3810 C   0  0  0  0  0  0  0  0  0  0  0  0
  161.2450  142.9750  123.7160 C   0  0  0  0  0  0  0  0  0  0  0  0
  161.0830  142.0400  126.3020 C   0  0  0  0  0  0  0  0  0  0  0  0
  162.2340  143.2990  124.6260 C   0  0  0  0  0  0  0  0  0  0  0  0
  162.1510  142.8340  125.9240 C   0  0  0  0  0  0  0  0  0  0  0  0
  163.1490  143.1380  126.8020 O   0  0  0  0  0  0  0  0  0  0  0  0
  143.6620  128.8230  126.7380 N   0  0  0  0  0  0  0  0  0  0  0  0
  142.8730  130.0810  126.8180 C   0  0  2  0  0  0  0  0  0  0  0  0
  141.8600  130.0720  125.6700 C   0  0  0  0  0  0  0  0  0  0  0  0
  142.1630  129.4700  124.6230 O   0  0  0  0  0  0  0  0  0  0  0  0
  143.8070  131.2910  126.7410 C   0  0  0  0  0  0  0  0  0  0  0  0
  143.9780  131.8960  125.3700 C   0  0  0  0  0  0  0  0  0  0  0  0
  144.8840  131.3650  124.4660 C   0  0  0  0  0  0  0  0  0  0  0  0
  143.2450  133.0080  124.9900 C   0  0  0  0  0  0  0  0  0  0  0  0
  145.0370  131.9220  123.2070 C   0  0  0  0  0  0  0  0  0  0  0  0
  143.3980  133.5640  123.7300 C   0  0  0  0  0  0  0  0  0  0  0  0
  144.2960  133.0220  122.8420 C   0  0  0  0  0  0  0  0  0  0  0  0
  139.9150  131.3390  122.4780 N   0  0  0  0  0  0  0  0  0  0  0  0
  140.0290  132.3230  121.3570 C   0  0  2  0  0  0  0  0  0  0  0  0
  138.7390  133.1440  121.2420 C   0  0  0  0  0  0  0  0  0  0  0  0
  138.8450  134.3290  120.8750 O   0  0  0  0  0  0  0  0  0  0  0  0
  140.4180  131.6530  120.0250 C   0  0  0  0  0  0  0  0  0  0  0  0
  141.7610  130.9480  120.1260 C   0  0  0  0  0  0  0  0  0  0  0  0
  139.3510  130.6970  119.5210 C   0  0  0  0  0  0  0  0  0  0  0  0
  2  1  1  1
  3  2  1  0
  4  3  2  0
  5  2  1  0
  6  5  1  0
  7  6  2  0
  8  6  1  0
  9  3  1  0
 10  9  1  0
 11 10  1  0
 12 11  2  0
 10 13  1  1
 14 13  1  0
 15 14  1  0
 16 15  1  0
 17 16  1  0
 18 17  1  0
 19 17  2  0
 20 11  1  0
 21 20  1  0
 22 21  1  0
 23 22  2  0
 21 24  1  6
 25 24  1  0
 26 22  1  0
 27 26  1  0
 28 27  1  0
 29 28  2  0
 27 30  1  1
 31 30  1  0
 32 31  2  0
 33 31  1  0
 35 34  1  6
 36 35  1  0
 37 36  2  0
 38 35  1  0
 39 38  1  0
 40 39  1  0
 41 39  2  0
 42 40  2  0
 43 42  1  0
 43 41  1  0
 44 36  1  0
 45 44  1  0
 46 45  1  0
 47 46  2  0
 45 48  1  1
 49 48  1  0
 50 49  2  0
 51 49  1  0
 52 50  1  0
 53 51  2  0
 54 53  1  0
 54 52  2  0
 55 46  1  0
 56 55  1  0
 57 56  1  0
 58 57  2  0
 59 57  1  0
 60 59  1  0
 61 60  1  0
 62 61  2  0
 60 63  1  1
 64 63  1  0
 65 64  1  0
 66 65  1  0
 67 66  1  0
 69 68  1  1
 70 69  1  0
 71 70  2  0
 72 69  1  0
 73 72  1  0
 74 73  2  0
 75 73  1  0
 77 76  1  6
 78 77  1  0
 79 78  2  0
 80 77  1  0
 81 80  1  0
 80 82  1  1
 83 78  1  0
 84 83  1  0
 85 84  1  0
 86 85  2  0
 87 85  1  0
 88 87  1  0
 89 88  1  0
 90 89  2  0
 88 91  1  1
 92 91  1  0
 93 92  2  0
 94 92  1  0
 95 93  1  0
 96 94  2  0
 97 96  1  0
 97 95  2  0
 98 97  1  0
 99 89  1  0
100 99  1  0
101100  1  0
102101  2  0
100103  1  6
104103  1  0
105104  1  0
106104  2  0
107105  2  0
108107  1  0
108106  1  0
109101  1  0
110109  1  0
111110  1  0
112111  2  0
110113  1  1
114113  1  0
115114  2  0
116114  1  0
117115  1  0
118116  2  0
119118  1  0
119117  2  0
120119  1  0
122121  1  6
123122  1  0
124123  2  0
125122  1  0
126125  1  0
127126  2  0
128126  1  0
129127  1  0
130128  2  0
131130  1  0
131129  2  0
133132  1  1
134133  1  0
135134  2  0
136133  1  0
137136  1  0
138136  1  0
M  END
$$$$
