
     RDKit          3D

149145  0  0  0  0  0  0  0  0999 V2000
  108.1230  136.7810  121.1500 N   0  0  0  0  0  0  0  0  0  0  0  0
  108.6190  137.5210  119.9920 C   0  0  2  0  0  0  0  0  0  0  0  0
  109.9720  138.1710  120.2630 C   0  0  0  0  0  0  0  0  0  0  0  0
  110.7610  138.3550  119.3300 O   0  0  0  0  0  0  0  0  0  0  0  0
  107.6000  138.5720  119.5610 C   0  0  0  0  0  0  0  0  0  0  0  0
  106.3630  137.9950  118.9530 C   0  0  0  0  0  0  0  0  0  0  0  0
  105.2580  138.7590  118.6480 N   0  0  0  0  0  0  0  0  0  0  0  0
  106.0560  136.7280  118.5920 C   0  0  0  0  0  0  0  0  0  0  0  0
  104.3230  137.9870  118.1230 C   0  0  0  0  0  0  0  0  0  0  0  0
  104.7820  136.7500  118.0800 N   0  0  0  0  0  0  0  0  0  0  0  0
   95.7650  134.3360  106.2480 N   0  0  0  0  0  0  0  0  0  0  0  0
   96.8930  134.0280  105.3770 C   0  0  2  0  0  0  0  0  0  0  0  0
   96.9950  132.5300  105.1180 C   0  0  0  0  0  0  0  0  0  0  0  0
   97.2760  132.1030  103.9890 O   0  0  0  0  0  0  0  0  0  0  0  0
   98.1880  134.5520  106.0010 C   0  0  0  0  0  0  0  0  0  0  0  0
   98.3110  136.0710  106.0480 C   0  0  0  0  0  0  0  0  0  0  0  0
   97.6760  136.6820  107.2830 C   0  0  0  0  0  0  0  0  0  0  0  0
   97.1850  135.9200  108.1420 O   0  0  0  0  0  0  0  0  0  0  0  0
   97.6710  137.9260  107.3960 O   0  0  0  0  0  0  0  0  0  0  0  0
   99.1900  131.4330  102.0400 N   0  0  0  0  0  0  0  0  0  0  0  0
  100.5130  131.9040  102.4100 C   0  0  2  0  0  0  0  0  0  0  0  0
  101.3130  130.7730  103.0420 C   0  0  0  0  0  0  0  0  0  0  0  0
  100.7640  129.8890  103.7060 O   0  0  0  0  0  0  0  0  0  0  0  0
  100.4020  133.0830  103.3710 C   0  0  0  0  0  0  0  0  0  0  0  0
   99.8150  134.3280  102.7350 C   0  0  0  0  0  0  0  0  0  0  0  0
  100.8270  134.9980  101.8330 C   0  0  0  0  0  0  0  0  0  0  0  0
  102.0150  135.3750  102.5910 N   0  0  0  0  0  0  0  0  0  0  0  0
  102.1330  136.5010  103.2870 C   0  0  0  0  0  0  0  0  0  0  0  0
  101.1360  137.3750  103.3200 N   0  0  0  0  0  0  0  0  0  0  0  0
  103.2530  136.7570  103.9480 N   0  0  0  0  0  0  0  0  0  0  0  0
  104.2040  130.7290  105.3130 N   0  0  0  0  0  0  0  0  0  0  0  0
  104.4560  130.7970  106.7430 C   0  0  2  0  0  0  0  0  0  0  0  0
  103.6920  131.9600  107.3580 C   0  0  0  0  0  0  0  0  0  0  0  0
  103.6420  133.0540  106.7870 O   0  0  0  0  0  0  0  0  0  0  0  0
  105.9460  130.9230  107.0250 C   0  0  0  0  0  0  0  0  0  0  0  0
  106.7250  129.7450  106.4960 C   0  0  0  0  0  0  0  0  0  0  0  0
  106.5970  128.4940  107.0770 C   0  0  0  0  0  0  0  0  0  0  0  0
  107.6000  129.8860  105.4300 C   0  0  0  0  0  0  0  0  0  0  0  0
  107.3120  127.4080  106.6080 C   0  0  0  0  0  0  0  0  0  0  0  0
  108.3180  128.8080  104.9520 C   0  0  0  0  0  0  0  0  0  0  0  0
  108.1710  127.5730  105.5440 C   0  0  0  0  0  0  0  0  0  0  0  0
  108.8880  126.5000  105.0700 O   0  0  0  0  0  0  0  0  0  0  0  0
  103.0910  131.7100  108.5230 N   0  0  0  0  0  0  0  0  0  0  0  0
  102.2650  132.7260  109.1670 C   0  0  2  0  0  0  0  0  0  0  0  0
  103.1180  133.8210  109.7940 C   0  0  0  0  0  0  0  0  0  0  0  0
  102.8910  135.0120  109.5540 O   0  0  0  0  0  0  0  0  0  0  0  0
  101.3610  132.0780  110.2160 C   0  0  0  0  0  0  0  0  0  0  0  0
  104.1090  133.4400  110.5950 N   0  0  0  0  0  0  0  0  0  0  0  0
  104.9220  134.4040  111.2960 C   0  0  0  0  0  0  0  0  0  0  0  0
  104.1990  134.9840  112.4940 C   0  0  0  0  0  0  0  0  0  0  0  0
  103.2480  134.3950  113.0110 O   0  0  0  0  0  0  0  0  0  0  0  0
  104.6420  136.1510  112.9730 N   0  0  0  0  0  0  0  0  0  0  0  0
  103.9890  136.7640  114.1390 C   0  0  2  0  0  0  0  0  0  0  0  0
  102.6450  137.4110  113.8490 C   0  0  0  0  0  0  0  0  0  0  0  0
  101.9880  137.8670  114.7950 O   0  0  0  0  0  0  0  0  0  0  0  0
  105.0050  137.8250  114.5890 C   0  0  0  0  0  0  0  0  0  0  0  0
  106.2950  137.3960  114.0000 C   0  0  0  0  0  0  0  0  0  0  0  0
  105.9400  136.7800  112.6860 C   0  0  0  0  0  0  0  0  0  0  0  0
  102.2150  137.4820  112.5870 N   0  0  0  0  0  0  0  0  0  0  0  0
  100.9410  138.1190  112.2740 C   0  0  2  0  0  0  0  0  0  0  0  0
   99.7450  137.2650  112.6740 C   0  0  0  0  0  0  0  0  0  0  0  0
   98.6390  137.7980  112.8040 O   0  0  0  0  0  0  0  0  0  0  0  0
  100.8640  138.4510  110.7820 C   0  0  0  0  0  0  0  0  0  0  0  0
  101.7670  139.5930  110.3480 C   0  0  0  0  0  0  0  0  0  0  0  0
  103.1850  139.1500  110.0480 C   0  0  0  0  0  0  0  0  0  0  0  0
  103.4620  137.9330  110.0910 O   0  0  0  0  0  0  0  0  0  0  0  0
  104.0260  140.0290  109.7780 O   0  0  0  0  0  0  0  0  0  0  0  0
   98.9520  138.2350  116.8810 N   0  0  0  0  0  0  0  0  0  0  0  0
   98.1520  139.3810  117.2950 C   0  0  2  0  0  0  0  0  0  0  0  0
   96.6930  139.1790  116.9070 C   0  0  0  0  0  0  0  0  0  0  0  0
   95.7860  139.5720  117.6490 O   0  0  0  0  0  0  0  0  0  0  0  0
   98.7440  140.6680  116.6890 C   0  0  2  0  0  0  0  0  0  0  0  0
  100.2270  140.7770  117.0420 C   0  0  0  0  0  0  0  0  0  0  0  0
   98.0270  141.8990  117.2100 C   0  0  0  0  0  0  0  0  0  0  0  0
  100.5060  140.8570  118.5280 C   0  0  0  0  0  0  0  0  0  0  0  0
   94.1800  141.9420  106.3090 N   0  0  0  0  0  0  0  0  0  0  0  0
   95.4250  142.2080  105.6130 C   0  0  2  0  0  0  0  0  0  0  0  0
   96.4900  142.6220  106.6140 C   0  0  0  0  0  0  0  0  0  0  0  0
   96.2600  143.5490  107.4030 O   0  0  0  0  0  0  0  0  0  0  0  0
   95.2300  143.3070  104.5640 C   0  0  0  0  0  0  0  0  0  0  0  0
   96.4380  143.4790  103.6700 C   0  0  0  0  0  0  0  0  0  0  0  0
   96.6740  142.6030  102.8120 O   0  0  0  0  0  0  0  0  0  0  0  0
   97.1450  144.4960  103.8170 O   0  0  0  0  0  0  0  0  0  0  0  0
   97.6570  141.9700  106.6190 N   0  0  0  0  0  0  0  0  0  0  0  0
   98.6410  142.2050  107.6880 C   0  0  2  0  0  0  0  0  0  0  0  0
   99.3970  143.5220  107.5830 C   0  0  0  0  0  0  0  0  0  0  0  0
  100.2180  143.8060  108.4630 O   0  0  0  0  0  0  0  0  0  0  0  0
   99.5990  141.0150  107.5400 C   0  0  0  0  0  0  0  0  0  0  0  0
   99.5120  140.6530  106.1010 C   0  0  0  0  0  0  0  0  0  0  0  0
   98.0910  140.9140  105.6880 C   0  0  0  0  0  0  0  0  0  0  0  0
   99.1710  144.3250  106.5400 N   0  0  0  0  0  0  0  0  0  0  0  0
   99.8160  145.6320  106.4620 C   0  0  2  0  0  0  0  0  0  0  0  0
   99.2600  146.5980  107.5010 C   0  0  0  0  0  0  0  0  0  0  0  0
  100.0040  147.4270  108.0360 O   0  0  0  0  0  0  0  0  0  0  0  0
   99.6510  146.2170  105.0610 C   0  0  0  0  0  0  0  0  0  0  0  0
  100.3840  145.4520  103.9750 C   0  0  0  0  0  0  0  0  0  0  0  0
  100.0650  146.1320  102.3360 S   0  0  0  0  0  0  0  0  0  0  0  0
  100.9610  147.6800  102.4320 C   0  0  0  0  0  0  0  0  0  0  0  0
   97.5310  145.4810  110.2830 N   0  0  0  0  0  0  0  0  0  0  0  0
   97.3270  144.7700  111.5370 C   0  0  2  0  0  0  0  0  0  0  0  0
   98.2030  145.3710  112.6330 C   0  0  0  0  0  0  0  0  0  0  0  0
   99.3250  145.8170  112.3770 O   0  0  0  0  0  0  0  0  0  0  0  0
   97.6310  143.2830  111.3400 C   0  0  0  0  0  0  0  0  0  0  0  0
   97.2940  142.3810  112.5150 C   0  0  0  0  0  0  0  0  0  0  0  0
   97.4640  140.9200  112.1390 C   0  0  0  0  0  0  0  0  0  0  0  0
   96.4600  140.5030  111.1640 N   0  0  0  0  0  0  0  0  0  0  0  0
   96.4730  139.3390  110.5230 C   0  0  0  0  0  0  0  0  0  0  0  0
   97.4430  138.4660  110.7500 N   0  0  0  0  0  0  0  0  0  0  0  0
   95.5170  139.0480  109.6520 N   0  0  0  0  0  0  0  0  0  0  0  0
   97.6710  145.3990  113.8540 N   0  0  0  0  0  0  0  0  0  0  0  0
   98.3330  146.0560  114.9740 C   0  0  2  0  0  0  0  0  0  0  0  0
   99.5920  145.3110  115.4040 C   0  0  0  0  0  0  0  0  0  0  0  0
   99.6830  144.0840  115.3100 O   0  0  0  0  0  0  0  0  0  0  0  0
   97.3760  146.1710  116.1600 C   0  0  0  0  0  0  0  0  0  0  0  0
  100.5750  146.0760  115.8690 N   0  0  0  0  0  0  0  0  0  0  0  0
  101.7990  145.5390  116.4360 C   0  0  2  0  0  0  0  0  0  0  0  0
  101.7510  145.6490  117.9570 C   0  0  0  0  0  0  0  0  0  0  0  0
  100.8200  146.2150  118.5350 O   0  0  0  0  0  0  0  0  0  0  0  0
  103.0200  146.2800  115.8900 C   0  0  2  0  0  0  0  0  0  0  0  0
  103.0190  147.6250  116.3820 O   0  0  0  0  0  0  0  0  0  0  0  0
  102.9750  146.3220  114.3800 C   0  0  0  0  0  0  0  0  0  0  0  0
  102.7880  145.1110  118.6080 N   0  0  0  0  0  0  0  0  0  0  0  0
  102.9330  145.2610  120.0550 C   0  0  2  0  0  0  0  0  0  0  0  0
  103.1310  146.7310  120.4110 C   0  0  0  0  0  0  0  0  0  0  0  0
  102.5610  147.2280  121.3890 O   0  0  0  0  0  0  0  0  0  0  0  0
  104.0810  144.3730  120.5860 C   0  0  2  0  0  0  0  0  0  0  0  0
  103.7290  142.8850  120.4790 C   0  0  0  0  0  0  0  0  0  0  0  0
  104.4220  144.6920  122.0360 C   0  0  0  0  0  0  0  0  0  0  0  0
  104.2640  142.1870  119.2560 C   0  0  0  0  0  0  0  0  0  0  0  0
  103.8900  147.4610  119.5880 N   0  0  0  0  0  0  0  0  0  0  0  0
  104.0310  148.9020  119.7850 C   0  0  2  0  0  0  0  0  0  0  0  0
  102.7160  149.6300  119.5160 C   0  0  0  0  0  0  0  0  0  0  0  0
  102.3730  150.5860  120.2250 O   0  0  0  0  0  0  0  0  0  0  0  0
  105.1430  149.4430  118.8860 C   0  0  0  0  0  0  0  0  0  0  0  0
  105.4340  150.9260  119.0610 C   0  0  0  0  0  0  0  0  0  0  0  0
  106.6310  151.3530  118.2290 C   0  0  0  0  0  0  0  0  0  0  0  0
  106.2920  151.3640  116.7480 C   0  0  0  0  0  0  0  0  0  0  0  0
  105.3140  152.4350  116.4070 N   0  0  0  0  0  0  0  0  0  0  0  0
  100.8250  149.1310  122.6020 N   0  0  0  0  0  0  0  0  0  0  0  0
  101.4720  149.7910  123.7270 C   0  0  2  0  0  0  0  0  0  0  0  0
  101.3260  151.3090  123.6580 C   0  0  0  0  0  0  0  0  0  0  0  0
  101.4770  151.9850  124.6820 O   0  0  0  0  0  0  0  0  0  0  0  0
  102.9480  149.3690  123.7580 C   0  0  0  0  0  0  0  0  0  0  0  0
  103.7420  149.7340  125.0050 C   0  0  0  0  0  0  0  0  0  0  0  0
  105.1700  149.2250  124.9030 C   0  0  0  0  0  0  0  0  0  0  0  0
  105.9150  149.9020  123.8460 N   0  0  0  0  0  0  0  0  0  0  0  0
  107.1180  149.5280  123.4230 C   0  0  0  0  0  0  0  0  0  0  0  0
  107.7160  148.4770  123.9660 N   0  0  0  0  0  0  0  0  0  0  0  0
  107.7230  150.2040  122.4560 N   0  0  0  0  0  0  0  0  0  0  0  0
  2  1  1  1
  3  2  1  0
  4  3  2  0
  5  2  1  0
  6  5  1  0
  7  6  1  0
  8  6  2  0
  9  7  2  0
 10  9  1  0
 10  8  1  0
 12 11  1  1
 13 12  1  0
 14 13  2  0
 15 12  1  0
 16 15  1  0
 17 16  1  0
 18 17  2  0
 19 17  1  0
 21 20  1  1
 22 21  1  0
 23 22  2  0
 24 21  1  0
 25 24  1  0
 26 25  1  0
 27 26  1  0
 28 27  1  0
 29 28  1  0
 30 28  2  0
 32 31  1  6
 33 32  1  0
 34 33  2  0
 35 32  1  0
 36 35  1  0
 37 36  2  0
 38 36  1  0
 39 37  1  0
 40 38  2  0
 41 40  1  0
 41 39  2  0
 42 41  1  0
 43 33  1  0
 44 43  1  0
 45 44  1  0
 46 45  2  0
 44 47  1  1
 48 45  1  0
 49 48  1  0
 50 49  1  0
 51 50  2  0
 52 50  1  0
 53 52  1  0
 53 54  1  6
 55 54  2  0
 56 53  1  0
 57 56  1  0
 58 52  1  0
 58 57  1  0
 59 54  1  0
 60 59  1  0
 61 60  1  0
 62 61  2  0
 60 63  1  6
 64 63  1  0
 65 64  1  0
 66 65  2  0
 67 65  1  0
 69 68  1  6
 70 69  1  0
 71 70  2  0
 72 69  1  0
 73 72  1  0
 72 74  1  1
 75 73  1  0
 77 76  1  1
 78 77  1  0
 79 78  2  0
 80 77  1  0
 81 80  1  0
 82 81  2  0
 83 81  1  0
 84 78  1  0
 85 84  1  0
 85 86  1  6
 87 86  2  0
 88 85  1  0
 89 88  1  0
 90 84  1  0
 90 89  1  0
 91 86  1  0
 92 91  1  0
 93 92  1  0
 94 93  2  0
 92 95  1  6
 96 95  1  0
 97 96  1  0
 98 97  1  0
100 99  1  6
101100  1  0
102101  2  0
103100  1  0
104103  1  0
105104  1  0
106105  1  0
107106  1  0
108107  1  0
109107  2  0
110101  1  0
111110  1  0
112111  1  0
113112  2  0
111114  1  1
115112  1  0
116115  1  6
117116  1  0
118117  2  0
119116  1  0
120119  1  0
119121  1  6
122117  1  0
123122  1  6
124123  1  0
125124  2  0
126123  1  0
127126  1  0
126128  1  1
129127  1  0
130124  1  0
131130  1  0
132131  1  0
133132  2  0
131134  1  6
135134  1  0
136135  1  0
137136  1  0
138137  1  0
140139  1  6
141140  1  0
142141  2  0
143140  1  0
144143  1  0
145144  1  0
146145  1  0
147146  1  0
148147  1  0
149147  2  0
M  END
$$$$
