
     RDKit          3D

213211  0  0  0  0  0  0  0  0999 V2000
    5.0160   71.7850   17.1670 N   0  0  0  0  0  0  0  0  0  0  0  0
    5.2520   73.1750   16.8100 C   0  0  2  0  0  0  0  0  0  0  0  0
    4.2730   74.0660   17.5680 C   0  0  0  0  0  0  0  0  0  0  0  0
    3.0590   73.8440   17.4920 O   0  0  0  0  0  0  0  0  0  0  0  0
    5.0930   73.3810   15.3100 C   0  0  0  0  0  0  0  0  0  0  0  0
    5.7380   74.6440   14.7830 C   0  0  0  0  0  0  0  0  0  0  0  0
    5.3160   75.8930   15.2080 C   0  0  0  0  0  0  0  0  0  0  0  0
    6.7610   74.5850   13.8490 C   0  0  0  0  0  0  0  0  0  0  0  0
    5.8950   77.0420   14.7330 C   0  0  0  0  0  0  0  0  0  0  0  0
    7.3490   75.7370   13.3640 C   0  0  0  0  0  0  0  0  0  0  0  0
    6.9090   76.9630   13.8120 C   0  0  0  0  0  0  0  0  0  0  0  0
    7.4810   78.1210   13.3410 O   0  0  0  0  0  0  0  0  0  0  0  0
   11.7200   70.0380    1.9850 N   0  0  0  0  0  0  0  0  0  0  0  0
   12.6410   69.6750    3.0580 C   0  0  2  0  0  0  0  0  0  0  0  0
   12.5440   70.7010    4.1880 C   0  0  0  0  0  0  0  0  0  0  0  0
   13.4340   71.5220    4.4200 O   0  0  0  0  0  0  0  0  0  0  0  0
   14.0580   69.5630    2.5120 C   0  0  2  0  0  0  0  0  0  0  0  0
   14.0620   68.6650    1.3970 O   0  0  0  0  0  0  0  0  0  0  0  0
   14.9630   68.9830    3.5650 C   0  0  0  0  0  0  0  0  0  0  0  0
   11.4190   70.6460    4.8910 N   0  0  0  0  0  0  0  0  0  0  0  0
   11.2020   71.5230    6.0240 C   0  0  0  0  0  0  0  0  0  0  0  0
   11.2400   70.7840    7.3440 C   0  0  0  0  0  0  0  0  0  0  0  0
   10.3720   69.9520    7.6240 O   0  0  0  0  0  0  0  0  0  0  0  0
   12.2430   71.0800    8.1660 N   0  0  0  0  0  0  0  0  0  0  0  0
   12.4830   70.3650    9.4120 C   0  0  2  0  0  0  0  0  0  0  0  0
   12.6720   71.3710   10.5400 C   0  0  0  0  0  0  0  0  0  0  0  0
   13.3770   72.3740   10.3770 O   0  0  0  0  0  0  0  0  0  0  0  0
   13.7140   69.4430    9.3030 C   0  0  0  0  0  0  0  0  0  0  0  0
   13.7830   68.5310   10.4990 C   0  0  0  0  0  0  0  0  0  0  0  0
   13.6780   68.6390    8.0060 C   0  0  0  0  0  0  0  0  0  0  0  0
   12.0440   71.1030   11.6820 N   0  0  0  0  0  0  0  0  0  0  0  0
   12.1960   71.9210   12.8760 C   0  0  2  0  0  0  0  0  0  0  0  0
   13.0070   71.1780   13.9280 C   0  0  0  0  0  0  0  0  0  0  0  0
   13.0110   69.9450   13.9840 O   0  0  0  0  0  0  0  0  0  0  0  0
   10.8410   72.3130   13.4700 C   0  0  0  0  0  0  0  0  0  0  0  0
   11.0140   73.0390   14.6760 O   0  0  0  0  0  0  0  0  0  0  0  0
   13.7090   71.9480   14.7560 N   0  0  0  0  0  0  0  0  0  0  0  0
   14.4410   71.3580   15.8670 C   0  0  2  0  0  0  0  0  0  0  0  0
   13.5180   70.9950   17.0200 C   0  0  0  0  0  0  0  0  0  0  0  0
   13.8330   70.0910   17.8010 O   0  0  0  0  0  0  0  0  0  0  0  0
   15.5370   72.3130   16.3380 C   0  0  0  0  0  0  0  0  0  0  0  0
   16.4370   66.2320   14.3990 N   0  0  0  0  0  0  0  0  0  0  0  0
   15.3810   67.1360   13.9640 C   0  0  2  0  0  0  0  0  0  0  0  0
   14.4320   66.4230   13.0090 C   0  0  0  0  0  0  0  0  0  0  0  0
   14.8640   65.7370   12.0790 O   0  0  0  0  0  0  0  0  0  0  0  0
   15.9870   68.3680   13.2940 C   0  0  0  0  0  0  0  0  0  0  0  0
   16.7180   69.1470   14.2250 O   0  0  0  0  0  0  0  0  0  0  0  0
    6.4970   71.2010    5.2280 N   0  0  0  0  0  0  0  0  0  0  0  0
    6.9290   72.5890    5.3600 C   0  0  2  0  0  0  0  0  0  0  0  0
    7.5100   73.0300    4.0230 C   0  0  0  0  0  0  0  0  0  0  0  0
    8.6480   72.6980    3.6820 O   0  0  0  0  0  0  0  0  0  0  0  0
    7.9410   72.7370    6.4880 C   0  0  0  0  0  0  0  0  0  0  0  0
    8.1740   74.1570    6.9080 C   0  0  0  0  0  0  0  0  0  0  0  0
    7.8500   75.2850    6.2090 C   0  0  0  0  0  0  0  0  0  0  0  0
    8.7840   74.6010    8.1250 C   0  0  0  0  0  0  0  0  0  0  0  0
    8.2210   76.4030    6.9160 N   0  0  0  0  0  0  0  0  0  0  0  0
    8.7960   76.0110    8.0960 C   0  0  0  0  0  0  0  0  0  0  0  0
    9.3220   73.9450    9.2360 C   0  0  0  0  0  0  0  0  0  0  0  0
    9.3240   76.7740    9.1350 C   0  0  0  0  0  0  0  0  0  0  0  0
    9.8460   74.7050   10.2660 C   0  0  0  0  0  0  0  0  0  0  0  0
    9.8430   76.1040   10.2080 C   0  0  0  0  0  0  0  0  0  0  0  0
    9.1960   75.4580    1.8020 N   0  0  0  0  0  0  0  0  0  0  0  0
   10.0570   76.6180    1.6700 C   0  0  2  0  0  0  0  0  0  0  0  0
   10.4190   76.7990    0.1950 C   0  0  0  0  0  0  0  0  0  0  0  0
    9.9160   76.0870   -0.6820 O   0  0  0  0  0  0  0  0  0  0  0  0
   11.2880   76.4630    2.5650 C   0  0  2  0  0  0  0  0  0  0  0  0
   12.0430   75.3150    2.1590 O   0  0  0  0  0  0  0  0  0  0  0  0
   10.8550   76.2850    4.0060 C   0  0  0  0  0  0  0  0  0  0  0  0
   11.2920   77.7630   -0.0820 N   0  0  0  0  0  0  0  0  0  0  0  0
   11.6540   78.0770   -1.4500 C   0  0  0  0  0  0  0  0  0  0  0  0
   12.8550   77.2900   -1.9460 C   0  0  0  0  0  0  0  0  0  0  0  0
   13.7170   76.8810   -1.1720 O   0  0  0  0  0  0  0  0  0  0  0  0
   12.8970   77.0790   -3.2610 N   0  0  0  0  0  0  0  0  0  0  0  0
   14.0090   76.4110   -3.9240 C   0  0  2  0  0  0  0  0  0  0  0  0
   14.6100   77.3380   -4.9710 C   0  0  0  0  0  0  0  0  0  0  0  0
   13.8820   78.0200   -5.6990 O   0  0  0  0  0  0  0  0  0  0  0  0
   13.5720   75.0970   -4.5850 C   0  0  0  0  0  0  0  0  0  0  0  0
   14.7340   74.2850   -5.1510 C   0  0  0  0  0  0  0  0  0  0  0  0
   14.3800   72.8160   -5.3250 C   0  0  0  0  0  0  0  0  0  0  0  0
   13.7150   72.5610   -6.6680 C   0  0  0  0  0  0  0  0  0  0  0  0
   13.4070   71.1180   -6.8680 N   0  0  0  0  0  0  0  0  0  0  0  0
   15.9450   77.3510   -5.0400 N   0  0  0  0  0  0  0  0  0  0  0  0
   16.6890   78.2190   -5.9570 C   0  0  2  0  0  0  0  0  0  0  0  0
   16.3360   79.6890   -5.7390 C   0  0  0  0  0  0  0  0  0  0  0  0
   16.2830   80.4810   -6.6820 O   0  0  0  0  0  0  0  0  0  0  0  0
   16.4620   77.8180   -7.4170 C   0  0  0  0  0  0  0  0  0  0  0  0
   17.1830   76.5370   -7.7910 C   0  0  0  0  0  0  0  0  0  0  0  0
   17.5520   75.7430   -6.9250 O   0  0  0  0  0  0  0  0  0  0  0  0
   17.3900   76.3310   -9.0870 N   0  0  0  0  0  0  0  0  0  0  0  0
   16.0850   80.0570   -4.4820 N   0  0  0  0  0  0  0  0  0  0  0  0
   15.7670   81.4230   -4.1240 C   0  0  0  0  0  0  0  0  0  0  0  0
   14.3610   81.8710   -4.4540 C   0  0  0  0  0  0  0  0  0  0  0  0
   13.9290   82.9160   -3.9500 O   0  0  0  0  0  0  0  0  0  0  0  0
   13.6310   81.1220   -5.2710 N   0  0  0  0  0  0  0  0  0  0  0  0
   12.2840   81.4820   -5.6860 C   0  0  2  0  0  0  0  0  0  0  0  0
   11.2520   80.6910   -4.8900 C   0  0  0  0  0  0  0  0  0  0  0  0
   11.5650   79.7100   -4.2140 O   0  0  0  0  0  0  0  0  0  0  0  0
   12.0970   81.2310   -7.1870 C   0  0  0  0  0  0  0  0  0  0  0  0
   12.4850   82.3150   -8.1980 C   0  0  0  0  0  0  0  0  0  0  0  0
   13.8490   82.9220   -7.8970 C   0  0  0  0  0  0  0  0  0  0  0  0
   12.4480   81.7470   -9.6100 C   0  0  0  0  0  0  0  0  0  0  0  0
    2.0200   79.7060    8.4350 N   0  0  0  0  0  0  0  0  0  0  0  0
    3.2390   80.0470    9.1550 C   0  0  2  0  0  0  0  0  0  0  0  0
    3.2910   81.5260    9.5040 C   0  0  0  0  0  0  0  0  0  0  0  0
    2.8470   82.3790    8.7310 O   0  0  0  0  0  0  0  0  0  0  0  0
    4.4820   79.6700    8.3480 C   0  0  0  0  0  0  0  0  0  0  0  0
    5.7510   79.7270    9.1410 C   0  0  0  0  0  0  0  0  0  0  0  0
    6.9770   79.9930    8.5700 N   0  0  0  0  0  0  0  0  0  0  0  0
    5.9840   79.5430   10.4630 C   0  0  0  0  0  0  0  0  0  0  0  0
    7.9090   79.9760    9.5060 C   0  0  0  0  0  0  0  0  0  0  0  0
    7.3330   79.7050   10.6630 N   0  0  0  0  0  0  0  0  0  0  0  0
    3.8350   81.8150   10.6850 N   0  0  0  0  0  0  0  0  0  0  0  0
    4.0650   83.1790   11.1520 C   0  0  2  0  0  0  0  0  0  0  0  0
    5.4980   83.2390   11.6660 C   0  0  0  0  0  0  0  0  0  0  0  0
    5.7630   82.9240   12.8340 O   0  0  0  0  0  0  0  0  0  0  0  0
    3.0500   83.5740   12.2220 C   0  0  0  0  0  0  0  0  0  0  0  0
    1.6250   83.4430   11.7780 C   0  0  0  0  0  0  0  0  0  0  0  0
    0.7980   84.5300   11.5990 N   0  0  0  0  0  0  0  0  0  0  0  0
    0.8770   82.3510   11.4880 C   0  0  0  0  0  0  0  0  0  0  0  0
   -0.3950   84.1150   11.2100 C   0  0  0  0  0  0  0  0  0  0  0  0
   -0.3730   82.7970   11.1350 N   0  0  0  0  0  0  0  0  0  0  0  0
    6.4480   83.6280   10.8170 N   0  0  0  0  0  0  0  0  0  0  0  0
    7.8720   83.5580   11.1860 C   0  0  2  0  0  0  0  0  0  0  0  0
    8.1890   84.4790   12.3500 C   0  0  0  0  0  0  0  0  0  0  0  0
    7.4560   85.4470   12.6040 O   0  0  0  0  0  0  0  0  0  0  0  0
    8.5890   84.0130    9.9050 C   0  0  0  0  0  0  0  0  0  0  0  0
    7.6100   83.7470    8.8130 C   0  0  0  0  0  0  0  0  0  0  0  0
    6.2670   84.0340    9.4140 C   0  0  0  0  0  0  0  0  0  0  0  0
    9.2710   84.2010   13.0920 N   0  0  0  0  0  0  0  0  0  0  0  0
    9.5940   85.0150   14.2740 C   0  0  2  0  0  0  0  0  0  0  0  0
    9.7930   86.4920   13.9610 C   0  0  0  0  0  0  0  0  0  0  0  0
    9.1090   87.3430   14.5370 O   0  0  0  0  0  0  0  0  0  0  0  0
   10.8860   84.3730   14.8010 C   0  0  0  0  0  0  0  0  0  0  0  0
   11.4370   83.5980   13.6470 C   0  0  0  0  0  0  0  0  0  0  0  0
   10.2500   83.1230   12.8780 C   0  0  0  0  0  0  0  0  0  0  0  0
   13.0270   89.0790    9.1420 N   0  0  0  0  0  0  0  0  0  0  0  0
   14.2320   88.5570    8.5160 C   0  0  0  0  0  0  0  0  0  0  0  0
   14.0740   87.1260    8.0400 C   0  0  0  0  0  0  0  0  0  0  0  0
   14.4050   86.8000    6.8980 O   0  0  0  0  0  0  0  0  0  0  0  0
   13.5500   86.2520    8.9050 N   0  0  0  0  0  0  0  0  0  0  0  0
   13.3320   84.8680    8.4950 C   0  0  2  0  0  0  0  0  0  0  0  0
   12.2200   84.7550    7.4630 C   0  0  0  0  0  0  0  0  0  0  0  0
   12.2500   83.8480    6.6250 O   0  0  0  0  0  0  0  0  0  0  0  0
   13.0230   83.9850    9.7060 C   0  0  0  0  0  0  0  0  0  0  0  0
   14.2260   83.7920   10.6080 C   0  0  0  0  0  0  0  0  0  0  0  0
   15.3650   83.9370   10.1180 O   0  0  0  0  0  0  0  0  0  0  0  0
   14.0370   83.4770   11.8010 O   0  0  0  0  0  0  0  0  0  0  0  0
   13.7330   85.0290    4.2200 N   0  0  0  0  0  0  0  0  0  0  0  0
   14.6250   83.9170    3.9100 C   0  0  2  0  0  0  0  0  0  0  0  0
   13.8920   82.6200    3.5960 C   0  0  0  0  0  0  0  0  0  0  0  0
   14.4240   81.7840    2.8550 O   0  0  0  0  0  0  0  0  0  0  0  0
   15.5920   83.6790    5.0730 C   0  0  0  0  0  0  0  0  0  0  0  0
   12.6920   82.4230    4.1400 N   0  0  0  0  0  0  0  0  0  0  0  0
   11.9650   81.1750    3.9310 C   0  0  2  0  0  0  0  0  0  0  0  0
   11.0820   81.2110    2.6910 C   0  0  0  0  0  0  0  0  0  0  0  0
   10.9490   80.1960    1.9980 O   0  0  0  0  0  0  0  0  0  0  0  0
   11.1050   80.8510    5.1560 C   0  0  0  0  0  0  0  0  0  0  0  0
   11.8030   80.7690    6.5140 C   0  0  0  0  0  0  0  0  0  0  0  0
   10.7990   80.5230    7.6270 C   0  0  0  0  0  0  0  0  0  0  0  0
   12.8570   79.6930    6.5000 C   0  0  0  0  0  0  0  0  0  0  0  0
   10.4940   84.6070    0.7230 N   0  0  0  0  0  0  0  0  0  0  0  0
   10.8650   85.6980   -0.1830 C   0  0  2  0  0  0  0  0  0  0  0  0
    9.6490   86.5090   -0.6340 C   0  0  0  0  0  0  0  0  0  0  0  0
    9.4740   86.7970   -1.8200 O   0  0  0  0  0  0  0  0  0  0  0  0
   11.6390   85.1720   -1.3950 C   0  0  0  0  0  0  0  0  0  0  0  0
   12.7170   84.1930   -1.0490 C   0  0  0  0  0  0  0  0  0  0  0  0
   14.0110   84.5790   -0.7730 N   0  0  0  0  0  0  0  0  0  0  0  0
   12.6950   82.8440   -0.9450 C   0  0  0  0  0  0  0  0  0  0  0  0
   14.7390   83.5090   -0.5070 C   0  0  0  0  0  0  0  0  0  0  0  0
   13.9650   82.4430   -0.6050 N   0  0  0  0  0  0  0  0  0  0  0  0
   11.3110   76.6810   22.2180 N   0  0  0  0  0  0  0  0  0  0  0  0
   12.5000   77.2970   21.6330 C   0  0  2  0  0  0  0  0  0  0  0  0
   12.2540   77.8970   20.2510 C   0  0  0  0  0  0  0  0  0  0  0  0
   13.1650   78.5210   19.6950 O   0  0  0  0  0  0  0  0  0  0  0  0
   13.6880   76.3240   21.5540 C   0  0  0  0  0  0  0  0  0  0  0  0
   15.0030   77.0290   21.2660 C   0  0  0  0  0  0  0  0  0  0  0  0
   15.2070   78.1440   21.7920 O   0  0  0  0  0  0  0  0  0  0  0  0
   15.8290   76.4720   20.5120 O   0  0  0  0  0  0  0  0  0  0  0  0
   11.0630   77.7530   19.6790 N   0  0  0  0  0  0  0  0  0  0  0  0
   10.7620   78.3450   18.3800 C   0  0  2  0  0  0  0  0  0  0  0  0
    9.7910   79.5020   18.5870 C   0  0  0  0  0  0  0  0  0  0  0  0
    8.6200   79.2900   18.9220 O   0  0  0  0  0  0  0  0  0  0  0  0
   10.2180   77.3000   17.4080 C   0  0  0  0  0  0  0  0  0  0  0  0
   11.3310   76.4490   16.8130 C   0  0  0  0  0  0  0  0  0  0  0  0
   12.4560   77.3640   16.3650 C   0  0  0  0  0  0  0  0  0  0  0  0
   13.2970   76.8110   15.3080 N   0  0  0  0  0  0  0  0  0  0  0  0
   14.5220   76.3320   15.5040 C   0  0  0  0  0  0  0  0  0  0  0  0
   15.2200   75.8530   14.4840 N   0  0  0  0  0  0  0  0  0  0  0  0
   15.0550   76.3480   16.7180 N   0  0  0  0  0  0  0  0  0  0  0  0
   10.2940   80.7250   18.3950 N   0  0  0  0  0  0  0  0  0  0  0  0
    9.4920   81.9250   18.6200 C   0  0  2  0  0  0  0  0  0  0  0  0
    8.2890   81.9760   17.6880 C   0  0  0  0  0  0  0  0  0  0  0  0
    7.1460   82.1220   18.1380 O   0  0  0  0  0  0  0  0  0  0  0  0
   10.3640   83.1640   18.4230 C   0  0  0  0  0  0  0  0  0  0  0  0
    9.6730   84.4810   18.7110 C   0  0  0  0  0  0  0  0  0  0  0  0
   10.6440   85.5530   19.1650 C   0  0  0  0  0  0  0  0  0  0  0  0
   10.2150   86.7140   19.3290 O   0  0  0  0  0  0  0  0  0  0  0  0
   11.8370   85.2350   19.3560 O   0  0  0  0  0  0  0  0  0  0  0  0
    8.5270   81.8560   16.3840 N   0  0  0  0  0  0  0  0  0  0  0  0
    7.4330   81.9180   15.4350 C   0  0  0  0  0  0  0  0  0  0  0  0
    6.4760   80.7560   15.6130 C   0  0  0  0  0  0  0  0  0  0  0  0
    6.8590   79.6650   16.0390 O   0  0  0  0  0  0  0  0  0  0  0  0
    5.2120   80.9980   15.2870 N   0  0  0  0  0  0  0  0  0  0  0  0
    4.1600   80.0290   15.5420 C   0  0  2  0  0  0  0  0  0  0  0  0
    3.5310   79.5550   14.2420 C   0  0  0  0  0  0  0  0  0  0  0  0
    3.5240   80.2650   13.2320 O   0  0  0  0  0  0  0  0  0  0  0  0
    3.0820   80.6110   16.4570 C   0  0  0  0  0  0  0  0  0  0  0  0
    3.5420   80.7400   17.8870 C   0  0  0  0  0  0  0  0  0  0  0  0
    2.9540   81.9600   18.5520 C   0  0  0  0  0  0  0  0  0  0  0  0
    2.7330   81.7200   19.9700 N   0  0  0  0  0  0  0  0  0  0  0  0
    3.6930   81.7880   20.8840 C   0  0  0  0  0  0  0  0  0  0  0  0
    4.9350   82.0810   20.5240 N   0  0  0  0  0  0  0  0  0  0  0  0
    3.4150   81.5550   22.1560 N   0  0  0  0  0  0  0  0  0  0  0  0
  2  1  1  6
  3  2  1  0
  4  3  2  0
  5  2  1  0
  6  5  1  0
  7  6  2  0
  8  6  1  0
  9  7  1  0
 10  8  2  0
 11 10  1  0
 11  9  2  0
 12 11  1  0
 14 13  1  6
 15 14  1  0
 16 15  2  0
 17 14  1  0
 18 17  1  0
 17 19  1  1
 20 15  1  0
 21 20  1  0
 22 21  1  0
 23 22  2  0
 24 22  1  0
 25 24  1  6
 26 25  1  0
 27 26  2  0
 28 25  1  0
 29 28  1  0
 30 28  1  0
 31 26  1  0
 32 31  1  0
 33 32  1  0
 34 33  2  0
 32 35  1  1
 36 35  1  0
 37 33  1  0
 38 37  1  0
 39 38  1  0
 40 39  2  0
 38 41  1  1
 43 42  1  6
 44 43  1  0
 45 44  2  0
 46 43  1  0
 47 46  1  0
 49 48  1  6
 50 49  1  0
 51 50  2  0
 52 49  1  0
 53 52  1  0
 54 53  2  0
 55 53  1  0
 56 54  1  0
 57 55  2  0
 57 56  1  0
 58 55  1  0
 59 57  1  0
 60 58  2  0
 61 60  1  0
 61 59  2  0
 63 62  1  6
 64 63  1  0
 65 64  2  0
 66 63  1  0
 67 66  1  0
 66 68  1  1
 69 64  1  0
 70 69  1  0
 71 70  1  0
 72 71  2  0
 73 71  1  0
 74 73  1  0
 75 74  1  0
 76 75  2  0
 74 77  1  6
 78 77  1  0
 79 78  1  0
 80 79  1  0
 81 80  1  0
 82 75  1  0
 83 82  1  0
 84 83  1  0
 85 84  2  0
 83 86  1  6
 87 86  1  0
 88 87  2  0
 89 87  1  0
 90 84  1  0
 91 90  1  0
 92 91  1  0
 93 92  2  0
 94 92  1  0
 95 94  1  0
 96 95  1  0
 97 96  2  0
 95 98  1  6
 99 98  1  0
100 99  1  0
101 99  1  0
103102  1  6
104103  1  0
105104  2  0
106103  1  0
107106  1  0
108107  1  0
109107  2  0
110108  2  0
111110  1  0
111109  1  0
112104  1  0
113112  1  0
114113  1  0
115114  2  0
113116  1  1
117116  1  0
118117  1  0
119117  2  0
120118  2  0
121120  1  0
121119  1  0
122114  1  0
123122  1  0
123124  1  1
125124  2  0
126123  1  0
127126  1  0
128127  1  0
128122  1  0
129124  1  0
130129  1  0
130131  1  6
132131  2  0
133130  1  0
134133  1  0
135129  1  0
135134  1  0
137136  1  0
138137  1  0
139138  2  0
140138  1  0
141140  1  0
142141  1  0
143142  2  0
141144  1  1
145144  1  0
146145  2  0
147145  1  0
149148  1  0
150149  1  0
151150  2  0
149152  1  1
153150  1  0
154153  1  0
155154  1  0
156155  2  0
154157  1  1
158157  1  0
159158  1  0
160158  1  0
162161  1  1
163162  1  0
164163  2  0
165162  1  0
166165  1  0
167166  1  0
168166  2  0
169167  2  0
170169  1  0
170168  1  0
172171  1  6
173172  1  0
174173  2  0
175172  1  0
176175  1  0
177176  2  0
178176  1  0
179173  1  0
180179  1  0
181180  1  0
182181  2  0
180183  1  6
184183  1  0
185184  1  0
186185  1  0
187186  1  0
188187  1  0
189187  2  0
190181  1  0
191190  1  0
192191  1  0
193192  2  0
191194  1  6
195194  1  0
196195  1  0
197196  2  0
198196  1  0
199192  1  0
200199  1  0
201200  1  0
202201  2  0
203201  1  0
204203  1  0
205204  1  0
206205  2  0
204207  1  1
208207  1  0
209208  1  0
210209  1  0
211210  1  0
212211  1  0
213211  2  0
M  END
$$$$
