
     RDKit          3D

155151  0  0  0  0  0  0  0  0999 V2000
    8.3770   69.3090   13.8770 N   0  0  0  0  0  0  0  0  0  0  0  0
    9.0010   68.2290   14.6250 C   0  0  2  0  0  0  0  0  0  0  0  0
    8.0570   67.0650   14.8860 C   0  0  0  0  0  0  0  0  0  0  0  0
    8.5000   66.0270   15.3900 O   0  0  0  0  0  0  0  0  0  0  0  0
    9.5370   68.7620   15.9550 C   0  0  0  0  0  0  0  0  0  0  0  0
    6.7800   67.2130   14.5550 N   0  0  0  0  0  0  0  0  0  0  0  0
    5.7670   66.1900   14.7630 C   0  0  2  0  0  0  0  0  0  0  0  0
    5.6040   65.3760   13.4820 C   0  0  0  0  0  0  0  0  0  0  0  0
    5.4630   65.9500   12.3980 O   0  0  0  0  0  0  0  0  0  0  0  0
    4.4530   66.8610   15.1510 C   0  0  0  0  0  0  0  0  0  0  0  0
    4.5370   67.6450   16.4610 C   0  0  0  0  0  0  0  0  0  0  0  0
    4.9570   66.8060   17.6510 C   0  0  0  0  0  0  0  0  0  0  0  0
    4.7910   67.6100   18.9310 C   0  0  0  0  0  0  0  0  0  0  0  0
    5.3130   66.9070   20.1290 N   0  0  0  0  0  0  0  0  0  0  0  0
    5.6350   64.0460   13.6000 N   0  0  0  0  0  0  0  0  0  0  0  0
    5.4600   63.2030   12.4220 C   0  0  2  0  0  0  0  0  0  0  0  0
    4.0740   63.4370   11.8060 C   0  0  0  0  0  0  0  0  0  0  0  0
    3.1250   63.8510   12.4850 O   0  0  0  0  0  0  0  0  0  0  0  0
    5.6680   61.7230   12.7930 C   0  0  2  0  0  0  0  0  0  0  0  0
    5.8250   60.8540   11.5430 C   0  0  0  0  0  0  0  0  0  0  0  0
    4.5310   61.2210   13.6770 C   0  0  0  0  0  0  0  0  0  0  0  0
    7.1860   60.9910   10.8820 C   0  0  0  0  0  0  0  0  0  0  0  0
   16.5510   62.7800    4.2910 N   0  0  0  0  0  0  0  0  0  0  0  0
   17.6800   63.6630    4.5540 C   0  0  2  0  0  0  0  0  0  0  0  0
   18.8030   62.9950    5.3350 C   0  0  0  0  0  0  0  0  0  0  0  0
   19.9210   63.5220    5.3490 O   0  0  0  0  0  0  0  0  0  0  0  0
   17.2250   64.9020    5.3370 C   0  0  0  0  0  0  0  0  0  0  0  0
   16.6020   65.8470    4.4950 O   0  0  0  0  0  0  0  0  0  0  0  0
   18.5340   61.8940    6.0180 N   0  0  0  0  0  0  0  0  0  0  0  0
   19.5770   61.2220    6.7640 C   0  0  0  0  0  0  0  0  0  0  0  0
   18.9950   60.3530    7.8550 C   0  0  0  0  0  0  0  0  0  0  0  0
   17.7800   60.1920    7.9810 O   0  0  0  0  0  0  0  0  0  0  0  0
   19.9000   59.7880    8.6460 N   0  0  0  0  0  0  0  0  0  0  0  0
   19.5460   58.9120    9.7450 C   0  0  0  0  0  0  0  0  0  0  0  0
   20.0890   57.5090    9.5640 C   0  0  0  0  0  0  0  0  0  0  0  0
   20.8630   57.2160    8.6470 O   0  0  0  0  0  0  0  0  0  0  0  0
   19.6680   56.6310   10.4760 N   0  0  0  0  0  0  0  0  0  0  0  0
   20.0260   55.2190   10.4450 C   0  0  2  0  0  0  0  0  0  0  0  0
   19.4500   54.5290    9.2070 C   0  0  0  0  0  0  0  0  0  0  0  0
   18.4560   54.9880    8.6330 O   0  0  0  0  0  0  0  0  0  0  0  0
   19.5470   54.5280   11.7230 C   0  0  0  0  0  0  0  0  0  0  0  0
   20.3570   54.9320   12.9480 C   0  0  0  0  0  0  0  0  0  0  0  0
   21.4630   55.4910   12.7800 O   0  0  0  0  0  0  0  0  0  0  0  0
   19.9050   54.6690   14.0810 O   0  0  0  0  0  0  0  0  0  0  0  0
   17.5590   52.0990    8.9620 N   0  0  0  0  0  0  0  0  0  0  0  0
   16.1520   51.7910    9.1820 C   0  0  2  0  0  0  0  0  0  0  0  0
   15.2060   52.8600    8.6340 C   0  0  0  0  0  0  0  0  0  0  0  0
   14.1120   52.5280    8.1600 O   0  0  0  0  0  0  0  0  0  0  0  0
   15.9180   51.5920   10.6820 C   0  0  0  0  0  0  0  0  0  0  0  0
   16.4890   50.2860   11.2310 C   0  0  0  0  0  0  0  0  0  0  0  0
   18.0030   50.3110   11.3660 C   0  0  0  0  0  0  0  0  0  0  0  0
   18.5720   51.4140   11.5080 O   0  0  0  0  0  0  0  0  0  0  0  0
   18.6220   49.2230   11.3290 O   0  0  0  0  0  0  0  0  0  0  0  0
   15.6010   54.1310    8.6430 N   0  0  0  0  0  0  0  0  0  0  0  0
   14.7010   55.1860    8.1950 C   0  0  2  0  0  0  0  0  0  0  0  0
   15.0490   55.7830    6.8350 C   0  0  0  0  0  0  0  0  0  0  0  0
   14.1650   56.3810    6.2020 O   0  0  0  0  0  0  0  0  0  0  0  0
   14.6340   56.3110    9.2460 C   0  0  2  0  0  0  0  0  0  0  0  0
   15.9860   57.0190    9.3250 C   0  0  0  0  0  0  0  0  0  0  0  0
   14.2740   55.7420   10.6000 C   0  0  0  0  0  0  0  0  0  0  0  0
   15.9420   58.3190   10.0590 C   0  0  0  0  0  0  0  0  0  0  0  0
   20.0090   47.7020   13.0010 N   0  0  0  0  0  0  0  0  0  0  0  0
   19.7830   48.4220   14.2490 C   0  0  2  0  0  0  0  0  0  0  0  0
   18.3670   48.0990   14.7040 C   0  0  0  0  0  0  0  0  0  0  0  0
   17.4200   48.2370   13.9240 O   0  0  0  0  0  0  0  0  0  0  0  0
   19.9310   49.9280   14.0540 C   0  0  0  0  0  0  0  0  0  0  0  0
   21.2850   50.3080   13.5340 C   0  0  0  0  0  0  0  0  0  0  0  0
   22.3050   50.0080   14.1480 O   0  0  0  0  0  0  0  0  0  0  0  0
   21.3080   50.9740   12.3910 N   0  0  0  0  0  0  0  0  0  0  0  0
   18.2150   47.6650   15.9530 N   0  0  0  0  0  0  0  0  0  0  0  0
   16.9010   47.2160   16.3970 C   0  0  2  0  0  0  0  0  0  0  0  0
   15.9300   48.3710   16.6110 C   0  0  0  0  0  0  0  0  0  0  0  0
   16.2770   49.4010   17.1960 O   0  0  0  0  0  0  0  0  0  0  0  0
   16.9760   46.4130   17.6940 C   0  0  0  0  0  0  0  0  0  0  0  0
   17.7120   45.0960   17.6440 C   0  0  0  0  0  0  0  0  0  0  0  0
   17.6790   44.3550   19.2970 S   0  0  0  0  0  0  0  0  0  0  0  0
   18.5800   45.5740   20.2480 C   0  0  0  0  0  0  0  0  0  0  0  0
   14.7030   48.1880   16.1190 N   0  0  0  0  0  0  0  0  0  0  0  0
   13.6420   49.1570   16.3730 C   0  0  2  0  0  0  0  0  0  0  0  0
   13.1220   49.0810   17.8070 C   0  0  0  0  0  0  0  0  0  0  0  0
   12.6970   50.1010   18.3590 O   0  0  0  0  0  0  0  0  0  0  0  0
   12.4920   48.9920   15.3800 C   0  0  0  0  0  0  0  0  0  0  0  0
   11.8270   47.6630   15.4360 C   0  0  0  0  0  0  0  0  0  0  0  0
   12.1970   46.5490   14.7540 C   0  0  0  0  0  0  0  0  0  0  0  0
   10.7510   47.2660   16.2950 C   0  0  0  0  0  0  0  0  0  0  0  0
   11.3750   45.5000   15.0740 N   0  0  0  0  0  0  0  0  0  0  0  0
   10.4830   45.9130   16.0270 C   0  0  0  0  0  0  0  0  0  0  0  0
    9.9700   47.9290   17.2440 C   0  0  0  0  0  0  0  0  0  0  0  0
    9.4700   45.2090   16.6750 C   0  0  0  0  0  0  0  0  0  0  0  0
    8.9660   47.2230   17.8880 C   0  0  0  0  0  0  0  0  0  0  0  0
    8.7260   45.8820   17.6010 C   0  0  0  0  0  0  0  0  0  0  0  0
   13.0880   47.8890   18.4120 N   0  0  0  0  0  0  0  0  0  0  0  0
   12.4530   47.7810   19.7210 C   0  0  2  0  0  0  0  0  0  0  0  0
   13.3020   48.4380   20.7990 C   0  0  0  0  0  0  0  0  0  0  0  0
   12.7670   49.0560   21.7270 O   0  0  0  0  0  0  0  0  0  0  0  0
   12.2280   46.3210   20.1160 C   0  0  0  0  0  0  0  0  0  0  0  0
   11.8830   45.3580   19.0160 C   0  0  0  0  0  0  0  0  0  0  0  0
   13.1140   44.7600   18.3900 C   0  0  0  0  0  0  0  0  0  0  0  0
   13.9260   45.4650   17.7940 O   0  0  0  0  0  0  0  0  0  0  0  0
   13.2880   43.4600   18.5600 N   0  0  0  0  0  0  0  0  0  0  0  0
   14.6210   48.2780   20.7140 N   0  0  0  0  0  0  0  0  0  0  0  0
   15.5470   48.8060   21.7050 C   0  0  2  0  0  0  0  0  0  0  0  0
   16.8240   49.2620   21.0100 C   0  0  0  0  0  0  0  0  0  0  0  0
   17.1590   48.7910   19.9210 O   0  0  0  0  0  0  0  0  0  0  0  0
   15.8480   47.7520   22.7900 C   0  0  0  0  0  0  0  0  0  0  0  0
   14.5840   47.2390   23.5060 C   0  0  0  0  0  0  0  0  0  0  0  0
   14.8430   46.1240   24.5000 C   0  0  0  0  0  0  0  0  0  0  0  0
   14.1890   46.1300   25.5610 O   0  0  0  0  0  0  0  0  0  0  0  0
   15.6750   45.2340   24.2230 O   0  0  0  0  0  0  0  0  0  0  0  0
   17.5400   50.1900   21.6500 N   0  0  0  0  0  0  0  0  0  0  0  0
   18.7990   50.6780   21.0920 C   0  0  2  0  0  0  0  0  0  0  0  0
   19.7950   49.5300   21.0610 C   0  0  0  0  0  0  0  0  0  0  0  0
   20.1760   48.9860   22.1050 O   0  0  0  0  0  0  0  0  0  0  0  0
   19.3340   51.8590   21.9150 C   0  0  0  0  0  0  0  0  0  0  0  0
   20.6990   52.3150   21.4010 C   0  0  0  0  0  0  0  0  0  0  0  0
   18.3430   53.0050   21.8950 C   0  0  0  0  0  0  0  0  0  0  0  0
   20.1970   49.1370   19.8620 N   0  0  0  0  0  0  0  0  0  0  0  0
   21.1560   48.0640   19.7010 C   0  0  0  0  0  0  0  0  0  0  0  0
   21.0780   47.4630   18.3170 C   0  0  0  0  0  0  0  0  0  0  0  0
   20.2080   47.7950   17.5080 O   0  0  0  0  0  0  0  0  0  0  0  0
    7.8250   63.7970    7.2050 N   0  0  0  0  0  0  0  0  0  0  0  0
    8.3000   64.8720    8.0600 C   0  0  2  0  0  0  0  0  0  0  0  0
    8.5640   66.0930    7.1920 C   0  0  0  0  0  0  0  0  0  0  0  0
    9.1780   65.9700    6.1240 O   0  0  0  0  0  0  0  0  0  0  0  0
    9.5840   64.4570    8.8150 C   0  0  2  0  0  0  0  0  0  0  0  0
    9.3210   63.3090    9.6340 O   0  0  0  0  0  0  0  0  0  0  0  0
   10.0860   65.5890    9.7030 C   0  0  0  0  0  0  0  0  0  0  0  0
   10.0400   59.5700    7.1780 N   0  0  0  0  0  0  0  0  0  0  0  0
   10.6960   59.4360    8.4620 C   0  0  0  0  0  0  0  0  0  0  0  0
   10.0080   58.2830    9.1120 C   0  0  0  0  0  0  0  0  0  0  0  0
    9.4640   57.4130    8.4250 O   0  0  0  0  0  0  0  0  0  0  0  0
   10.0160   58.2540   10.4340 N   0  0  0  0  0  0  0  0  0  0  0  0
    9.4030   57.1080   11.0570 C   0  0  0  0  0  0  0  0  0  0  0  0
   10.4930   56.4320   11.8380 C   0  0  0  0  0  0  0  0  0  0  0  0
   11.5210   57.0510   12.1260 O   0  0  0  0  0  0  0  0  0  0  0  0
   10.2790   55.1760   12.1970 N   0  0  0  0  0  0  0  0  0  0  0  0
   11.2450   54.4840   13.0160 C   0  0  0  0  0  0  0  0  0  0  0  0
   10.6560   54.0770   14.3390 C   0  0  0  0  0  0  0  0  0  0  0  0
   10.8190   52.9410   14.7880 O   0  0  0  0  0  0  0  0  0  0  0  0
    9.9570   55.0050   14.9710 N   0  0  0  0  0  0  0  0  0  0  0  0
    9.2680   54.6840   16.2070 C   0  0  2  0  0  0  0  0  0  0  0  0
    7.9580   54.0540   15.7680 C   0  0  0  0  0  0  0  0  0  0  0  0
    7.0440   54.7370   15.2970 O   0  0  0  0  0  0  0  0  0  0  0  0
    9.0820   55.9280   17.0640 C   0  0  0  0  0  0  0  0  0  0  0  0
    8.4240   55.6300   18.3950 C   0  0  0  0  0  0  0  0  0  0  0  0
    8.3980   56.5410   19.2460 O   0  0  0  0  0  0  0  0  0  0  0  0
    7.9420   54.4960   18.6110 O   0  0  0  0  0  0  0  0  0  0  0  0
    7.8950   52.7290   15.8920 N   0  0  0  0  0  0  0  0  0  0  0  0
    6.7770   51.9460   15.3920 C   0  0  2  0  0  0  0  0  0  0  0  0
    5.4860   52.1900   16.1500 C   0  0  0  0  0  0  0  0  0  0  0  0
    4.4420   51.6950   15.7140 O   0  0  0  0  0  0  0  0  0  0  0  0
    7.1420   50.4640   15.3780 C   0  0  0  0  0  0  0  0  0  0  0  0
    8.3390   50.2120   14.4900 C   0  0  0  0  0  0  0  0  0  0  0  0
    7.9370   50.7450   12.8130 S   0  0  0  0  0  0  0  0  0  0  0  0
    9.5510   51.2110   12.2070 C   0  0  0  0  0  0  0  0  0  0  0  0
  2  1  1  0
  3  2  1  0
  4  3  2  0
  2  5  1  1
  6  3  1  0
  7  6  1  0
  8  7  1  0
  9  8  2  0
  7 10  1  6
 11 10  1  0
 12 11  1  0
 13 12  1  0
 14 13  1  0
 15  8  1  0
 16 15  1  1
 17 16  1  0
 18 17  2  0
 19 16  1  0
 20 19  1  0
 19 21  1  6
 22 20  1  0
 24 23  1  1
 25 24  1  0
 26 25  2  0
 27 24  1  0
 28 27  1  0
 29 25  1  0
 30 29  1  0
 31 30  1  0
 32 31  2  0
 33 31  1  0
 34 33  1  0
 35 34  1  0
 36 35  2  0
 37 35  1  0
 38 37  1  0
 39 38  1  0
 40 39  2  0
 38 41  1  1
 42 41  1  0
 43 42  2  0
 44 42  1  0
 46 45  1  1
 47 46  1  0
 48 47  2  0
 49 46  1  0
 50 49  1  0
 51 50  1  0
 52 51  2  0
 53 51  1  0
 54 47  1  0
 55 54  1  1
 56 55  1  0
 57 56  2  0
 58 55  1  0
 59 58  1  0
 58 60  1  1
 61 59  1  0
 63 62  1  6
 64 63  1  0
 65 64  2  0
 66 63  1  0
 67 66  1  0
 68 67  2  0
 69 67  1  0
 70 64  1  0
 71 70  1  0
 72 71  1  0
 73 72  2  0
 71 74  1  1
 75 74  1  0
 76 75  1  0
 77 76  1  0
 78 72  1  0
 79 78  1  0
 80 79  1  0
 81 80  2  0
 79 82  1  6
 83 82  1  0
 84 83  2  0
 85 83  1  0
 86 84  1  0
 87 85  2  0
 87 86  1  0
 88 85  1  0
 89 87  1  0
 90 88  2  0
 91 90  1  0
 91 89  2  0
 92 80  1  0
 93 92  1  0
 94 93  1  0
 95 94  2  0
 93 96  1  1
 97 96  1  0
 98 97  1  0
 99 98  2  0
100 98  1  0
101 94  1  0
102101  1  0
103102  1  0
104103  2  0
102105  1  1
106105  1  0
107106  1  0
108107  2  0
109107  1  0
110103  1  0
111110  1  1
112111  1  0
113112  2  0
114111  1  0
115114  1  0
116114  1  0
117112  1  0
118117  1  0
119118  1  0
120119  2  0
122121  1  6
123122  1  0
124123  2  0
125122  1  0
126125  1  0
125127  1  1
129128  1  0
130129  1  0
131130  2  0
132130  1  0
133132  1  0
134133  1  0
135134  2  0
136134  1  0
137136  1  0
138137  1  0
139138  2  0
140138  1  0
141140  1  0
142141  1  0
143142  2  0
141144  1  6
145144  1  0
146145  2  0
147145  1  0
148142  1  0
149148  1  0
150149  1  0
151150  2  0
149152  1  1
153152  1  0
154153  1  0
155154  1  0
M  END
$$$$
