
     RDKit          3D

 70 67  0  0  0  0  0  0  0  0999 V2000
    0.2560   67.8510   15.5760 N   0  0  0  0  0  0  0  0  0  0  0  0
    0.0270   69.2510   15.2630 C   0  0  2  0  0  0  0  0  0  0  0  0
    0.7850   69.5310   13.9700 C   0  0  0  0  0  0  0  0  0  0  0  0
    2.0150   69.6150   13.9930 O   0  0  0  0  0  0  0  0  0  0  0  0
    0.4890   70.1180   16.4140 C   0  0  0  0  0  0  0  0  0  0  0  0
   -0.0820   71.4460   16.3280 C   0  0  0  0  0  0  0  0  0  0  0  0
    0.2190   72.1960   15.4050 O   0  0  0  0  0  0  0  0  0  0  0  0
   -0.9880   71.7530   17.2560 N   0  0  0  0  0  0  0  0  0  0  0  0
    1.4000   72.1680   12.1740 N   0  0  0  0  0  0  0  0  0  0  0  0
    2.2980   73.3070   11.9970 C   0  0  2  0  0  0  0  0  0  0  0  0
    3.6020   73.1490   12.7530 C   0  0  0  0  0  0  0  0  0  0  0  0
    4.4910   73.9990   12.6200 O   0  0  0  0  0  0  0  0  0  0  0  0
    1.6250   74.6080   12.4300 C   0  0  2  0  0  0  0  0  0  0  0  0
    1.0740   74.4490   13.7380 O   0  0  0  0  0  0  0  0  0  0  0  0
    0.5340   74.9950   11.4500 C   0  0  0  0  0  0  0  0  0  0  0  0
    3.7450   72.0860   13.5260 N   0  0  0  0  0  0  0  0  0  0  0  0
    4.9600   71.8280   14.2750 C   0  0  2  0  0  0  0  0  0  0  0  0
    5.7500   70.8330   13.4320 C   0  0  0  0  0  0  0  0  0  0  0  0
    5.3610   69.6670   13.3140 O   0  0  0  0  0  0  0  0  0  0  0  0
    4.6140   71.2780   15.6570 C   0  0  0  0  0  0  0  0  0  0  0  0
    5.8370   71.0220   16.5210 C   0  0  0  0  0  0  0  0  0  0  0  0
    6.9630   70.9170   15.9890 O   0  0  0  0  0  0  0  0  0  0  0  0
    5.6660   70.9280   17.7530 O   0  0  0  0  0  0  0  0  0  0  0  0
    6.8400   71.3010   12.8170 N   0  0  0  0  0  0  0  0  0  0  0  0
    7.5770   70.4660   11.8750 C   0  0  2  0  0  0  0  0  0  0  0  0
    8.2930   69.3050   12.5460 C   0  0  0  0  0  0  0  0  0  0  0  0
    8.7840   68.4160   11.8410 O   0  0  0  0  0  0  0  0  0  0  0  0
    8.5740   71.3310   11.0940 C   0  0  0  0  0  0  0  0  0  0  0  0
    9.7150   71.8600   11.9660 C   0  0  0  0  0  0  0  0  0  0  0  0
   10.3730   71.1130   12.6830 O   0  0  0  0  0  0  0  0  0  0  0  0
    9.9390   73.1690   11.9100 N   0  0  0  0  0  0  0  0  0  0  0  0
    8.1170   67.2620    7.6500 N   0  0  0  0  0  0  0  0  0  0  0  0
    8.2670   68.5040    6.9030 C   0  0  2  0  0  0  0  0  0  0  0  0
    9.4960   69.2750    7.3500 C   0  0  0  0  0  0  0  0  0  0  0  0
    9.7150   69.4550    8.5530 O   0  0  0  0  0  0  0  0  0  0  0  0
    7.0480   69.3990    7.1020 C   0  0  0  0  0  0  0  0  0  0  0  0
    7.0560   70.6550    6.2550 C   0  0  0  0  0  0  0  0  0  0  0  0
    5.8180   71.4640    6.5580 C   0  0  0  0  0  0  0  0  0  0  0  0
    5.6290   71.6380    8.0020 N   0  0  0  0  0  0  0  0  0  0  0  0
    6.0410   72.6930    8.7020 C   0  0  0  0  0  0  0  0  0  0  0  0
    6.6410   73.7070    8.0950 N   0  0  0  0  0  0  0  0  0  0  0  0
    5.8220   72.7540   10.0070 N   0  0  0  0  0  0  0  0  0  0  0  0
   10.2890   69.7360    6.3800 N   0  0  0  0  0  0  0  0  0  0  0  0
   11.4620   70.5400    6.7020 C   0  0  2  0  0  0  0  0  0  0  0  0
   11.0110   71.8560    7.3320 C   0  0  0  0  0  0  0  0  0  0  0  0
   10.0890   72.5130    6.8380 O   0  0  0  0  0  0  0  0  0  0  0  0
   12.3380   70.7850    5.4660 C   0  0  0  0  0  0  0  0  0  0  0  0
   13.2510   69.5920    5.1390 C   0  0  0  0  0  0  0  0  0  0  0  0
   12.7400   68.4730    4.9280 O   0  0  0  0  0  0  0  0  0  0  0  0
   14.4890   69.7670    5.1180 O   0  0  0  0  0  0  0  0  0  0  0  0
   11.6780   72.2550    8.4150 N   0  0  0  0  0  0  0  0  0  0  0  0
   11.3730   73.5020    9.0810 C   0  0  0  0  0  0  0  0  0  0  0  0
   12.2360   74.6520    8.6010 C   0  0  0  0  0  0  0  0  0  0  0  0
   13.0600   74.5240    7.6970 O   0  0  0  0  0  0  0  0  0  0  0  0
   12.0240   75.8020    9.2180 N   0  0  0  0  0  0  0  0  0  0  0  0
   12.8720   76.9480    8.9840 C   0  0  0  0  0  0  0  0  0  0  0  0
   12.1480   78.0230    8.1890 C   0  0  0  0  0  0  0  0  0  0  0  0
   11.1490   77.7760    7.5100 O   0  0  0  0  0  0  0  0  0  0  0  0
   12.6720   79.2410    8.2840 N   0  0  0  0  0  0  0  0  0  0  0  0
   12.1670   80.3540    7.4870 C   0  0  2  0  0  0  0  0  0  0  0  0
   12.3720   80.1260    5.9880 C   0  0  0  0  0  0  0  0  0  0  0  0
   13.2690   79.3950    5.5610 O   0  0  0  0  0  0  0  0  0  0  0  0
   12.8640   81.6450    7.9100 C   0  0  0  0  0  0  0  0  0  0  0  0
   12.5520   81.9650    9.2540 O   0  0  0  0  0  0  0  0  0  0  0  0
   11.5000   80.7510    5.1920 N   0  0  0  0  0  0  0  0  0  0  0  0
   11.4990   80.6090    3.7370 C   0  0  2  0  0  0  0  0  0  0  0  0
   12.6920   81.3190    3.0980 C   0  0  0  0  0  0  0  0  0  0  0  0
   13.0020   82.4660    3.4410 O   0  0  0  0  0  0  0  0  0  0  0  0
   10.2040   81.1500    3.1380 C   0  0  0  0  0  0  0  0  0  0  0  0
   10.2100   82.5670    3.1080 O   0  0  0  0  0  0  0  0  0  0  0  0
  2  1  1  1
  3  2  1  0
  4  3  2  0
  5  2  1  0
  6  5  1  0
  7  6  2  0
  8  6  1  0
 10  9  1  1
 11 10  1  0
 12 11  2  0
 13 10  1  0
 14 13  1  0
 13 15  1  6
 16 11  1  0
 17 16  1  0
 18 17  1  0
 19 18  2  0
 17 20  1  1
 21 20  1  0
 22 21  2  0
 23 21  1  0
 24 18  1  0
 25 24  1  0
 26 25  1  0
 27 26  2  0
 25 28  1  1
 29 28  1  0
 30 29  2  0
 31 29  1  0
 33 32  1  1
 34 33  1  0
 35 34  2  0
 36 33  1  0
 37 36  1  0
 38 37  1  0
 39 38  1  0
 40 39  1  0
 41 40  1  0
 42 40  2  0
 43 34  1  0
 44 43  1  0
 45 44  1  0
 46 45  2  0
 44 47  1  6
 48 47  1  0
 49 48  2  0
 50 48  1  0
 51 45  1  0
 52 51  1  0
 53 52  1  0
 54 53  2  0
 55 53  1  0
 56 55  1  0
 57 56  1  0
 58 57  2  0
 59 57  1  0
 60 59  1  0
 61 60  1  0
 62 61  2  0
 60 63  1  1
 64 63  1  0
 65 61  1  0
 66 65  1  0
 67 66  1  0
 68 67  2  0
 66 69  1  6
 70 69  1  0
M  END
$$$$
