
     RDKit          3D

 79 75  0  0  0  0  0  0  0  0999 V2000
   23.1000    0.4370  -32.0420 N   0  0  0  0  0  0  0  0  0  0  0  0
   22.7150    1.2980  -30.9270 C   0  0  2  0  0  0  0  0  0  0  0  0
   22.3300    2.6480  -31.5130 C   0  0  0  0  0  0  0  0  0  0  0  0
   23.1800    3.3540  -32.0610 O   0  0  0  0  0  0  0  0  0  0  0  0
   23.8340    1.4420  -29.9030 C   0  0  0  0  0  0  0  0  0  0  0  0
   23.3070    1.8200  -28.5350 C   0  0  0  0  0  0  0  0  0  0  0  0
   23.0460    2.9910  -28.2600 O   0  0  0  0  0  0  0  0  0  0  0  0
   23.1350    0.8250  -27.6720 N   0  0  0  0  0  0  0  0  0  0  0  0
   21.4610    5.4920  -30.2400 N   0  0  0  0  0  0  0  0  0  0  0  0
   22.0300    6.6760  -29.6050 C   0  0  2  0  0  0  0  0  0  0  0  0
   23.5480    6.7730  -29.7710 C   0  0  0  0  0  0  0  0  0  0  0  0
   24.1670    7.6680  -29.1850 O   0  0  0  0  0  0  0  0  0  0  0  0
   21.6630    6.7050  -28.1140 C   0  0  2  0  0  0  0  0  0  0  0  0
   21.6830    5.3720  -27.5830 O   0  0  0  0  0  0  0  0  0  0  0  0
   20.2730    7.3010  -27.9130 C   0  0  0  0  0  0  0  0  0  0  0  0
   24.1500    5.8860  -30.5620 N   0  0  0  0  0  0  0  0  0  0  0  0
   25.5850    5.8770  -30.8390 C   0  0  2  0  0  0  0  0  0  0  0  0
   25.7860    6.3820  -32.2630 C   0  0  0  0  0  0  0  0  0  0  0  0
   25.5020    5.6600  -33.2260 O   0  0  0  0  0  0  0  0  0  0  0  0
   26.1510    4.4680  -30.6600 C   0  0  0  0  0  0  0  0  0  0  0  0
   27.6610    4.4020  -30.8320 C   0  0  0  0  0  0  0  0  0  0  0  0
   28.2870    5.4170  -31.2040 O   0  0  0  0  0  0  0  0  0  0  0  0
   28.2250    3.3150  -30.5890 O   0  0  0  0  0  0  0  0  0  0  0  0
   26.2890    7.6150  -32.3980 N   0  0  0  0  0  0  0  0  0  0  0  0
   26.3980    8.2290  -33.7180 C   0  0  2  0  0  0  0  0  0  0  0  0
   27.3940    7.5070  -34.6180 C   0  0  0  0  0  0  0  0  0  0  0  0
   27.2970    7.6230  -35.8430 O   0  0  0  0  0  0  0  0  0  0  0  0
   26.7530    9.7240  -33.5990 C   0  0  0  0  0  0  0  0  0  0  0  0
   28.1930    9.9770  -33.1480 C   0  0  0  0  0  0  0  0  0  0  0  0
   29.1480    9.6320  -33.8410 O   0  0  0  0  0  0  0  0  0  0  0  0
   28.3450   10.6380  -32.0040 N   0  0  0  0  0  0  0  0  0  0  0  0
   23.6140    9.7520  -37.9340 N   0  0  0  0  0  0  0  0  0  0  0  0
   23.1490   10.8410  -37.0820 C   0  0  2  0  0  0  0  0  0  0  0  0
   24.3120   11.7010  -36.6030 C   0  0  0  0  0  0  0  0  0  0  0  0
   25.3500   11.1830  -36.1810 O   0  0  0  0  0  0  0  0  0  0  0  0
   22.3930   10.2810  -35.8760 C   0  0  0  0  0  0  0  0  0  0  0  0
   21.6660   11.3160  -35.0430 C   0  0  0  0  0  0  0  0  0  0  0  0
   21.4140   10.7950  -33.6370 C   0  0  0  0  0  0  0  0  0  0  0  0
   22.3740   11.3400  -32.6810 N   0  0  0  0  0  0  0  0  0  0  0  0
   22.8620   10.6660  -31.6440 C   0  0  0  0  0  0  0  0  0  0  0  0
   22.4800    9.4150  -31.4330 N   0  0  0  0  0  0  0  0  0  0  0  0
   23.7320   11.2400  -30.8220 N   0  0  0  0  0  0  0  0  0  0  0  0
   24.1230   13.0190  -36.6590 N   0  0  0  0  0  0  0  0  0  0  0  0
   25.1350   13.9510  -36.1750 C   0  0  2  0  0  0  0  0  0  0  0  0
   25.2270   13.8990  -34.6560 C   0  0  0  0  0  0  0  0  0  0  0  0
   24.2100   13.9560  -33.9580 O   0  0  0  0  0  0  0  0  0  0  0  0
   24.8050   15.3720  -36.6210 C   0  0  0  0  0  0  0  0  0  0  0  0
   25.0950   15.6030  -38.0810 C   0  0  0  0  0  0  0  0  0  0  0  0
   25.5240   14.6460  -38.7590 O   0  0  0  0  0  0  0  0  0  0  0  0
   24.8850   16.7400  -38.5520 O   0  0  0  0  0  0  0  0  0  0  0  0
   26.4540   13.8070  -34.1430 N   0  0  0  0  0  0  0  0  0  0  0  0
   26.6940   13.8010  -32.7190 C   0  0  0  0  0  0  0  0  0  0  0  0
   27.0840   15.1750  -32.1900 C   0  0  0  0  0  0  0  0  0  0  0  0
   27.2130   16.1530  -32.9230 O   0  0  0  0  0  0  0  0  0  0  0  0
   27.2670   15.2280  -30.8820 N   0  0  0  0  0  0  0  0  0  0  0  0
   27.6720   16.4560  -30.2310 C   0  0  0  0  0  0  0  0  0  0  0  0
   26.4970   17.2030  -29.6300 C   0  0  0  0  0  0  0  0  0  0  0  0
   25.3470   17.0700  -30.0630 O   0  0  0  0  0  0  0  0  0  0  0  0
   26.7870   18.0040  -28.6100 N   0  0  0  0  0  0  0  0  0  0  0  0
   25.7520   18.7850  -27.9450 C   0  0  2  0  0  0  0  0  0  0  0  0
   25.2460   19.8560  -28.9000 C   0  0  0  0  0  0  0  0  0  0  0  0
   25.9700   20.8020  -29.2250 O   0  0  0  0  0  0  0  0  0  0  0  0
   26.2980   19.4060  -26.6630 C   0  0  0  0  0  0  0  0  0  0  0  0
   25.2920   20.1380  -25.9870 O   0  0  0  0  0  0  0  0  0  0  0  0
   24.0100   19.7020  -29.3660 N   0  0  0  0  0  0  0  0  0  0  0  0
   23.3890   20.7200  -30.2030 C   0  0  2  0  0  0  0  0  0  0  0  0
   23.1690   21.9850  -29.3800 C   0  0  0  0  0  0  0  0  0  0  0  0
   22.4450   21.9620  -28.3790 O   0  0  0  0  0  0  0  0  0  0  0  0
   22.0710   20.1970  -30.7720 C   0  0  0  0  0  0  0  0  0  0  0  0
   21.5960   21.0180  -31.8240 O   0  0  0  0  0  0  0  0  0  0  0  0
   17.7040   16.5800  -33.6580 N   0  0  0  0  0  0  0  0  0  0  0  0
   18.5300   15.5030  -34.1820 C   0  0  2  0  0  0  0  0  0  0  0  0
   18.5720   15.5850  -35.7010 C   0  0  0  0  0  0  0  0  0  0  0  0
   17.5330   15.7510  -36.3480 O   0  0  0  0  0  0  0  0  0  0  0  0
   17.9980   14.1420  -33.7320 C   0  0  0  0  0  0  0  0  0  0  0  0
   18.0930   13.9090  -32.2300 C   0  0  0  0  0  0  0  0  0  0  0  0
   19.5280   13.8040  -31.7410 C   0  0  0  0  0  0  0  0  0  0  0  0
   19.7450   13.9030  -30.5150 O   0  0  0  0  0  0  0  0  0  0  0  0
   20.4380   13.6250  -32.5790 O   0  0  0  0  0  0  0  0  0  0  0  0
  2  1  1  6
  3  2  1  0
  4  3  2  0
  5  2  1  0
  6  5  1  0
  7  6  2  0
  8  6  1  0
 10  9  1  1
 11 10  1  0
 12 11  2  0
 13 10  1  0
 14 13  1  0
 13 15  1  6
 16 11  1  0
 17 16  1  0
 18 17  1  0
 19 18  2  0
 17 20  1  6
 21 20  1  0
 22 21  2  0
 23 21  1  0
 24 18  1  0
 25 24  1  0
 26 25  1  0
 27 26  2  0
 25 28  1  1
 29 28  1  0
 30 29  2  0
 31 29  1  0
 33 32  1  6
 34 33  1  0
 35 34  2  0
 36 33  1  0
 37 36  1  0
 38 37  1  0
 39 38  1  0
 40 39  1  0
 41 40  1  0
 42 40  2  0
 43 34  1  0
 44 43  1  0
 45 44  1  0
 46 45  2  0
 44 47  1  1
 48 47  1  0
 49 48  2  0
 50 48  1  0
 51 45  1  0
 52 51  1  0
 53 52  1  0
 54 53  2  0
 55 53  1  0
 56 55  1  0
 57 56  1  0
 58 57  2  0
 59 57  1  0
 60 59  1  0
 61 60  1  0
 62 61  2  0
 60 63  1  1
 64 63  1  0
 65 61  1  0
 66 65  1  0
 67 66  1  0
 68 67  2  0
 66 69  1  1
 70 69  1  0
 72 71  1  6
 73 72  1  0
 74 73  2  0
 75 72  1  0
 76 75  1  0
 77 76  1  0
 78 77  2  0
 79 77  1  0
M  END
$$$$
