
     RDKit          3D

125118  0  0  0  0  0  0  0  0999 V2000
   24.6870    3.3170  -52.4360 N   0  0  0  0  0  0  0  0  0  0  0  0
   24.8770    4.0980  -51.2220 C   0  0  2  0  0  0  0  0  0  0  0  0
   23.6660    4.9910  -51.0040 C   0  0  0  0  0  0  0  0  0  0  0  0
   22.9030    5.2730  -51.9300 O   0  0  0  0  0  0  0  0  0  0  0  0
   26.1370    4.9700  -51.2710 C   0  0  2  0  0  0  0  0  0  0  0  0
   26.0240    5.9110  -52.3470 O   0  0  0  0  0  0  0  0  0  0  0  0
   27.3860    4.1150  -51.4570 C   0  0  0  0  0  0  0  0  0  0  0  0
   27.8180   15.2040  -45.0710 N   0  0  0  0  0  0  0  0  0  0  0  0
   28.7780   16.1390  -44.5020 C   0  0  2  0  0  0  0  0  0  0  0  0
   30.1390   16.0970  -45.1820 C   0  0  0  0  0  0  0  0  0  0  0  0
   30.9640   16.9870  -44.9400 O   0  0  0  0  0  0  0  0  0  0  0  0
   28.9510   15.8630  -43.0090 C   0  0  0  0  0  0  0  0  0  0  0  0
   27.9350   16.4960  -42.2500 O   0  0  0  0  0  0  0  0  0  0  0  0
   30.3950   15.1100  -46.0180 N   0  0  0  0  0  0  0  0  0  0  0  0
   31.6760   15.0130  -46.6890 C   0  0  0  0  0  0  0  0  0  0  0  0
   31.9810   13.5750  -47.0440 C   0  0  0  0  0  0  0  0  0  0  0  0
   31.1740   12.6700  -46.8370 O   0  0  0  0  0  0  0  0  0  0  0  0
   33.1740   13.3870  -47.5920 N   0  0  0  0  0  0  0  0  0  0  0  0
   33.6390   12.0840  -48.0230 C   0  0  0  0  0  0  0  0  0  0  0  0
   33.7920   12.0100  -49.5320 C   0  0  0  0  0  0  0  0  0  0  0  0
   33.5680   12.9750  -50.2620 O   0  0  0  0  0  0  0  0  0  0  0  0
   34.1840   10.8230  -49.9860 N   0  0  0  0  0  0  0  0  0  0  0  0
   34.3870   10.5880  -51.4040 C   0  0  2  0  0  0  0  0  0  0  0  0
   33.0650   10.7250  -52.1620 C   0  0  0  0  0  0  0  0  0  0  0  0
   31.9870   10.6710  -51.5640 O   0  0  0  0  0  0  0  0  0  0  0  0
   34.9960    9.2030  -51.6190 C   0  0  0  0  0  0  0  0  0  0  0  0
   36.4380    9.1170  -51.1480 C   0  0  0  0  0  0  0  0  0  0  0  0
   37.0250   10.1740  -50.8300 O   0  0  0  0  0  0  0  0  0  0  0  0
   36.9840    7.9930  -51.0960 O   0  0  0  0  0  0  0  0  0  0  0  0
   31.4140    8.7190  -53.8620 N   0  0  0  0  0  0  0  0  0  0  0  0
   30.5500    7.5440  -53.7900 C   0  0  2  0  0  0  0  0  0  0  0  0
   29.5790    7.5950  -52.6160 C   0  0  0  0  0  0  0  0  0  0  0  0
   28.5560    6.9020  -52.6500 O   0  0  0  0  0  0  0  0  0  0  0  0
   31.3980    6.2740  -53.6990 C   0  0  0  0  0  0  0  0  0  0  0  0
   32.0240    5.8390  -55.0140 C   0  0  0  0  0  0  0  0  0  0  0  0
   33.2220    6.6800  -55.4070 C   0  0  0  0  0  0  0  0  0  0  0  0
   33.6460    7.5410  -54.6020 O   0  0  0  0  0  0  0  0  0  0  0  0
   33.7440    6.4750  -56.5240 O   0  0  0  0  0  0  0  0  0  0  0  0
   29.8710    8.3790  -51.5810 N   0  0  0  0  0  0  0  0  0  0  0  0
   28.9890    8.4650  -50.4260 C   0  0  2  0  0  0  0  0  0  0  0  0
   28.3670    9.8420  -50.2410 C   0  0  0  0  0  0  0  0  0  0  0  0
   27.3050    9.9370  -49.6030 O   0  0  0  0  0  0  0  0  0  0  0  0
   29.7110    8.0360  -49.1330 C   0  0  2  0  0  0  0  0  0  0  0  0
   30.8940    8.9560  -48.8470 C   0  0  0  0  0  0  0  0  0  0  0  0
   30.1590    6.5940  -49.2300 C   0  0  0  0  0  0  0  0  0  0  0  0
   31.5570    8.6740  -47.5150 C   0  0  0  0  0  0  0  0  0  0  0  0
   35.9030    5.0840  -57.2430 N   0  0  0  0  0  0  0  0  0  0  0  0
   36.6120    4.6370  -56.0550 C   0  0  2  0  0  0  0  0  0  0  0  0
   36.0160    3.3060  -55.6170 C   0  0  0  0  0  0  0  0  0  0  0  0
   34.8460    3.2430  -55.2240 O   0  0  0  0  0  0  0  0  0  0  0  0
   36.5200    5.6770  -54.9410 C   0  0  0  0  0  0  0  0  0  0  0  0
   37.5310    6.7850  -55.1050 C   0  0  0  0  0  0  0  0  0  0  0  0
   38.7030    6.5310  -55.3850 O   0  0  0  0  0  0  0  0  0  0  0  0
   37.0890    8.0260  -54.9260 N   0  0  0  0  0  0  0  0  0  0  0  0
   36.8150    2.2500  -55.6970 N   0  0  0  0  0  0  0  0  0  0  0  0
   36.2990    0.9060  -55.4940 C   0  0  2  0  0  0  0  0  0  0  0  0
   35.8030    0.7130  -54.0660 C   0  0  0  0  0  0  0  0  0  0  0  0
   36.3400    1.2810  -53.1120 O   0  0  0  0  0  0  0  0  0  0  0  0
   37.3750   -0.1240  -55.8250 C   0  0  0  0  0  0  0  0  0  0  0  0
   37.8180   -0.0740  -57.2720 C   0  0  0  0  0  0  0  0  0  0  0  0
   38.7650   -1.5240  -57.7570 S   0  0  0  0  0  0  0  0  0  0  0  0
   40.1780   -1.3470  -56.6830 C   0  0  0  0  0  0  0  0  0  0  0  0
   34.7470   -0.0870  -53.9320 N   0  0  0  0  0  0  0  0  0  0  0  0
   34.2080   -0.4560  -52.6330 C   0  0  2  0  0  0  0  0  0  0  0  0
   34.7080   -1.8040  -52.1380 C   0  0  0  0  0  0  0  0  0  0  0  0
   34.7290   -2.0310  -50.9230 O   0  0  0  0  0  0  0  0  0  0  0  0
   32.6780   -0.4830  -52.6800 C   0  0  0  0  0  0  0  0  0  0  0  0
   32.1240   -1.4710  -53.6650 C   0  0  0  0  0  0  0  0  0  0  0  0
   31.8120   -1.2350  -54.9710 C   0  0  0  0  0  0  0  0  0  0  0  0
   31.8080   -2.8500  -53.4220 C   0  0  0  0  0  0  0  0  0  0  0  0
   31.3290   -2.3780  -55.5580 N   0  0  0  0  0  0  0  0  0  0  0  0
   31.3140   -3.3830  -54.6280 C   0  0  0  0  0  0  0  0  0  0  0  0
   31.9000   -3.6840  -52.3040 C   0  0  0  0  0  0  0  0  0  0  0  0
   30.9040   -4.7100  -54.7460 C   0  0  0  0  0  0  0  0  0  0  0  0
   31.4960   -5.0010  -52.4220 C   0  0  0  0  0  0  0  0  0  0  0  0
   31.0090   -5.5020  -53.6350 C   0  0  0  0  0  0  0  0  0  0  0  0
   40.4330   -0.9710  -51.3300 N   0  0  0  0  0  0  0  0  0  0  0  0
   40.8550    0.4120  -51.5070 C   0  0  2  0  0  0  0  0  0  0  0  0
   41.6200    0.5120  -52.8200 C   0  0  0  0  0  0  0  0  0  0  0  0
   42.6130   -0.1950  -53.0350 O   0  0  0  0  0  0  0  0  0  0  0  0
   41.6940    0.8950  -50.3170 C   0  0  0  0  0  0  0  0  0  0  0  0
   42.5060    2.1190  -50.6990 C   0  0  0  0  0  0  0  0  0  0  0  0
   40.7850    1.2280  -49.1460 C   0  0  0  0  0  0  0  0  0  0  0  0
   23.2130    8.3760  -41.0900 N   0  0  0  0  0  0  0  0  0  0  0  0
   24.1680    8.6250  -40.0150 C   0  0  2  0  0  0  0  0  0  0  0  0
   23.7460    9.8770  -39.2530 C   0  0  0  0  0  0  0  0  0  0  0  0
   23.5560   10.9410  -39.8550 O   0  0  0  0  0  0  0  0  0  0  0  0
   25.5940    8.7910  -40.5550 C   0  0  2  0  0  0  0  0  0  0  0  0
   26.0930    7.5230  -40.9980 O   0  0  0  0  0  0  0  0  0  0  0  0
   26.5150    9.3300  -39.4680 C   0  0  0  0  0  0  0  0  0  0  0  0
   24.1230   13.0190  -36.6590 N   0  0  0  0  0  0  0  0  0  0  0  0
   25.1350   13.9510  -36.1750 C   0  0  2  0  0  0  0  0  0  0  0  0
   25.2270   13.8990  -34.6560 C   0  0  0  0  0  0  0  0  0  0  0  0
   24.2100   13.9560  -33.9580 O   0  0  0  0  0  0  0  0  0  0  0  0
   24.8050   15.3720  -36.6210 C   0  0  0  0  0  0  0  0  0  0  0  0
   25.0950   15.6030  -38.0810 C   0  0  0  0  0  0  0  0  0  0  0  0
   25.5240   14.6460  -38.7590 O   0  0  0  0  0  0  0  0  0  0  0  0
   24.8850   16.7400  -38.5520 O   0  0  0  0  0  0  0  0  0  0  0  0
   26.1870    5.0870  -45.7260 N   0  0  0  0  0  0  0  0  0  0  0  0
   26.5150    4.0030  -46.6320 C   0  0  0  0  0  0  0  0  0  0  0  0
   28.0040    3.9250  -46.9090 C   0  0  0  0  0  0  0  0  0  0  0  0
   28.8210    4.6710  -46.3620 O   0  0  0  0  0  0  0  0  0  0  0  0
   28.3540    2.9920  -47.7900 N   0  0  0  0  0  0  0  0  0  0  0  0
   29.7440    2.7680  -48.1320 C   0  0  0  0  0  0  0  0  0  0  0  0
   30.1890    1.3480  -47.8500 C   0  0  0  0  0  0  0  0  0  0  0  0
   30.7720    0.6910  -48.7170 O   0  0  0  0  0  0  0  0  0  0  0  0
   29.9310    0.8680  -46.6340 N   0  0  0  0  0  0  0  0  0  0  0  0
   30.1950   -0.5230  -46.2730 C   0  0  2  0  0  0  0  0  0  0  0  0
   29.0350   -1.3490  -46.8020 C   0  0  0  0  0  0  0  0  0  0  0  0
   27.9280   -1.3090  -46.2600 O   0  0  0  0  0  0  0  0  0  0  0  0
   30.3470   -0.6760  -44.7640 C   0  0  0  0  0  0  0  0  0  0  0  0
   30.9880   -1.9890  -44.3710 C   0  0  0  0  0  0  0  0  0  0  0  0
   31.7270   -2.0060  -43.3650 O   0  0  0  0  0  0  0  0  0  0  0  0
   30.7560   -3.0040  -45.0630 O   0  0  0  0  0  0  0  0  0  0  0  0
   28.3820   -4.3300  -46.5780 N   0  0  0  0  0  0  0  0  0  0  0  0
   27.8410   -5.3050  -45.6400 C   0  0  2  0  0  0  0  0  0  0  0  0
   26.5020   -4.8490  -45.0760 C   0  0  0  0  0  0  0  0  0  0  0  0
   25.6440   -5.6830  -44.7650 O   0  0  0  0  0  0  0  0  0  0  0  0
   28.8350   -5.5510  -44.5070 C   0  0  0  0  0  0  0  0  0  0  0  0
   30.1360   -6.1900  -44.9490 C   0  0  0  0  0  0  0  0  0  0  0  0
   31.1910   -6.0780  -43.8720 C   0  0  0  0  0  0  0  0  0  0  0  0
   32.5060   -5.7990  -44.4340 N   0  0  0  0  0  0  0  0  0  0  0  0
   33.4860   -5.2000  -43.7660 C   0  0  0  0  0  0  0  0  0  0  0  0
   33.2910   -4.8170  -42.5100 N   0  0  0  0  0  0  0  0  0  0  0  0
   34.6560   -4.9810  -44.3540 N   0  0  0  0  0  0  0  0  0  0  0  0
  2  1  1  6
  3  2  1  0
  4  3  2  0
  5  2  1  0
  6  5  1  0
  5  7  1  6
  9  8  1  6
 10  9  1  0
 11 10  2  0
 12  9  1  0
 13 12  1  0
 14 10  1  0
 15 14  1  0
 16 15  1  0
 17 16  2  0
 18 16  1  0
 19 18  1  0
 20 19  1  0
 21 20  2  0
 22 20  1  0
 23 22  1  0
 24 23  1  0
 25 24  2  0
 23 26  1  1
 27 26  1  0
 28 27  2  0
 29 27  1  0
 31 30  1  1
 32 31  1  0
 33 32  2  0
 34 31  1  0
 35 34  1  0
 36 35  1  0
 37 36  2  0
 38 36  1  0
 39 32  1  0
 40 39  1  6
 41 40  1  0
 42 41  2  0
 43 40  1  0
 44 43  1  0
 43 45  1  6
 46 44  1  0
 48 47  1  6
 49 48  1  0
 50 49  2  0
 51 48  1  0
 52 51  1  0
 53 52  2  0
 54 52  1  0
 55 49  1  0
 56 55  1  0
 57 56  1  0
 58 57  2  0
 56 59  1  1
 60 59  1  0
 61 60  1  0
 62 61  1  0
 63 57  1  0
 64 63  1  0
 65 64  1  0
 66 65  2  0
 64 67  1  6
 68 67  1  0
 69 68  2  0
 70 68  1  0
 71 69  1  0
 72 71  1  0
 72 70  2  0
 73 70  1  0
 74 72  1  0
 75 73  2  0
 76 74  2  0
 76 75  1  0
 78 77  1  1
 79 78  1  0
 80 79  2  0
 81 78  1  0
 82 81  1  0
 83 81  1  0
 85 84  1  6
 86 85  1  0
 87 86  2  0
 88 85  1  0
 89 88  1  0
 88 90  1  1
 92 91  1  1
 93 92  1  0
 94 93  2  0
 95 92  1  0
 96 95  1  0
 97 96  2  0
 98 96  1  0
100 99  1  0
101100  1  0
102101  2  0
103101  1  0
104103  1  0
105104  1  0
106105  2  0
107105  1  0
108107  1  0
109108  1  0
110109  2  0
108111  1  1
112111  1  0
113112  2  0
114112  1  0
116115  1  6
117116  1  0
118117  2  0
119116  1  0
120119  1  0
121120  1  0
122121  1  0
123122  1  0
124123  1  0
125123  2  0
M  END
$$$$
