
     RDKit          3D

124122  0  0  0  0  0  0  0  0999 V2000
  -63.6780   13.5350   13.9980 N   0  0  0  0  0  0  0  0  0  0  0  0
  -62.8780   14.7370   14.1780 C   0  0  2  0  0  0  0  0  0  0  0  0
  -63.3170   15.7990   13.1750 C   0  0  0  0  0  0  0  0  0  0  0  0
  -64.0060   15.5100   12.1920 O   0  0  0  0  0  0  0  0  0  0  0  0
  -61.3760   14.4520   14.0500 C   0  0  0  0  0  0  0  0  0  0  0  0
  -60.9720   13.4940   12.9520 C   0  0  0  0  0  0  0  0  0  0  0  0
  -59.4530   13.3450   12.8790 C   0  0  0  0  0  0  0  0  0  0  0  0
  -58.8810   14.1830   11.8310 N   0  0  0  0  0  0  0  0  0  0  0  0
  -57.9510   13.7780   10.9740 C   0  0  0  0  0  0  0  0  0  0  0  0
  -57.4880   14.6110   10.0520 N   0  0  0  0  0  0  0  0  0  0  0  0
  -57.4820   12.5400   11.0370 N   0  0  0  0  0  0  0  0  0  0  0  0
  -63.1470   15.7200    9.3480 N   0  0  0  0  0  0  0  0  0  0  0  0
  -63.9460   14.6920    8.7000 C   0  0  2  0  0  0  0  0  0  0  0  0
  -65.4210   15.0550    8.5800 C   0  0  0  0  0  0  0  0  0  0  0  0
  -66.1680   14.3160    7.9310 O   0  0  0  0  0  0  0  0  0  0  0  0
  -63.8010   13.3640    9.4550 C   0  0  0  0  0  0  0  0  0  0  0  0
  -62.3720   12.8350    9.4630 C   0  0  0  0  0  0  0  0  0  0  0  0
  -62.1850   11.6380   10.3770 C   0  0  0  0  0  0  0  0  0  0  0  0
  -62.8810   11.5580   11.4100 O   0  0  0  0  0  0  0  0  0  0  0  0
  -61.3380   10.7750   10.0610 O   0  0  0  0  0  0  0  0  0  0  0  0
  -59.4510    7.2020   24.5170 N   0  0  0  0  0  0  0  0  0  0  0  0
  -59.3890    6.0770   23.5970 C   0  0  2  0  0  0  0  0  0  0  0  0
  -60.7100    5.3210   23.5050 C   0  0  0  0  0  0  0  0  0  0  0  0
  -60.7270    4.1610   23.0780 O   0  0  0  0  0  0  0  0  0  0  0  0
  -58.2480    5.1420   23.9990 C   0  0  0  0  0  0  0  0  0  0  0  0
  -56.8870    5.7900   23.8580 C   0  0  0  0  0  0  0  0  0  0  0  0
  -56.3070    5.9630   22.6080 C   0  0  0  0  0  0  0  0  0  0  0  0
  -56.1910    6.2440   24.9700 C   0  0  0  0  0  0  0  0  0  0  0  0
  -55.0690    6.5600   22.4690 C   0  0  0  0  0  0  0  0  0  0  0  0
  -54.9500    6.8430   24.8410 C   0  0  0  0  0  0  0  0  0  0  0  0
  -54.3950    6.9980   23.5880 C   0  0  0  0  0  0  0  0  0  0  0  0
  -53.1610    7.5930   23.4510 O   0  0  0  0  0  0  0  0  0  0  0  0
  -62.8690    4.5140   15.1040 N   0  0  0  0  0  0  0  0  0  0  0  0
  -63.2680    4.5430   13.7060 C   0  0  2  0  0  0  0  0  0  0  0  0
  -62.7420    3.2880   13.0310 C   0  0  0  0  0  0  0  0  0  0  0  0
  -61.6960    2.7560   13.4120 O   0  0  0  0  0  0  0  0  0  0  0  0
  -62.7450    5.7930   12.9770 C   0  0  0  0  0  0  0  0  0  0  0  0
  -61.2350    5.9230   12.9490 C   0  0  0  0  0  0  0  0  0  0  0  0
  -60.5520    6.5280   13.9950 C   0  0  0  0  0  0  0  0  0  0  0  0
  -60.4950    5.4500   11.8710 C   0  0  0  0  0  0  0  0  0  0  0  0
  -59.1730    6.6540   13.9750 C   0  0  0  0  0  0  0  0  0  0  0  0
  -59.1130    5.5710   11.8410 C   0  0  0  0  0  0  0  0  0  0  0  0
  -58.4580    6.1740   12.8960 C   0  0  0  0  0  0  0  0  0  0  0  0
  -57.0890    6.2990   12.8750 O   0  0  0  0  0  0  0  0  0  0  0  0
  -58.3970    3.8850   17.4780 N   0  0  0  0  0  0  0  0  0  0  0  0
  -58.8310    4.9470   18.3700 C   0  0  2  0  0  0  0  0  0  0  0  0
  -58.4380    6.3090   17.8170 C   0  0  0  0  0  0  0  0  0  0  0  0
  -57.3680    6.4690   17.2230 O   0  0  0  0  0  0  0  0  0  0  0  0
  -58.2280    4.7620   19.7600 C   0  0  0  0  0  0  0  0  0  0  0  0
  -58.6150    5.8290   20.6030 O   0  0  0  0  0  0  0  0  0  0  0  0
  -59.3180    7.2910   18.0130 N   0  0  0  0  0  0  0  0  0  0  0  0
  -58.9640    8.6680   17.6900 C   0  0  2  0  0  0  0  0  0  0  0  0
  -57.9230    9.2030   18.6630 C   0  0  0  0  0  0  0  0  0  0  0  0
  -56.9700    9.8790   18.2560 O   0  0  0  0  0  0  0  0  0  0  0  0
  -60.2070    9.5550   17.7150 C   0  0  0  0  0  0  0  0  0  0  0  0
  -61.0200    9.5360   16.4430 C   0  0  0  0  0  0  0  0  0  0  0  0
  -60.5360   10.1160   15.2780 C   0  0  0  0  0  0  0  0  0  0  0  0
  -62.2810    8.9540   16.4100 C   0  0  0  0  0  0  0  0  0  0  0  0
  -61.2790   10.1070   14.1140 C   0  0  0  0  0  0  0  0  0  0  0  0
  -63.0320    8.9420   15.2500 C   0  0  0  0  0  0  0  0  0  0  0  0
  -62.5260    9.5200   14.1060 C   0  0  0  0  0  0  0  0  0  0  0  0
  -63.2660    9.5110   12.9470 O   0  0  0  0  0  0  0  0  0  0  0  0
  -58.0870    8.9090   19.9500 N   0  0  0  0  0  0  0  0  0  0  0  0
  -57.2240    9.4670   20.9680 C   0  0  0  0  0  0  0  0  0  0  0  0
  -57.3410   10.9740   21.0390 C   0  0  0  0  0  0  0  0  0  0  0  0
  -56.3680   11.6940   20.7970 O   0  0  0  0  0  0  0  0  0  0  0  0
  -58.5340   11.4650   21.3600 N   0  0  0  0  0  0  0  0  0  0  0  0
  -58.7630   12.9020   21.4290 C   0  0  2  0  0  0  0  0  0  0  0  0
  -58.0520   13.4860   22.6460 C   0  0  0  0  0  0  0  0  0  0  0  0
  -58.3040   13.0680   23.7810 O   0  0  0  0  0  0  0  0  0  0  0  0
  -60.2610   13.1960   21.4820 C   0  0  0  0  0  0  0  0  0  0  0  0
  -60.9920   12.8790   20.2030 C   0  0  0  0  0  0  0  0  0  0  0  0
  -60.6010   13.4500   19.0010 C   0  0  0  0  0  0  0  0  0  0  0  0
  -62.0740   12.0140   20.2050 C   0  0  0  0  0  0  0  0  0  0  0  0
  -61.2750   13.1630   17.8240 C   0  0  0  0  0  0  0  0  0  0  0  0
  -62.7520   11.7220   19.0300 C   0  0  0  0  0  0  0  0  0  0  0  0
  -62.3520   12.2980   17.8410 C   0  0  0  0  0  0  0  0  0  0  0  0
  -57.1550   14.4430   22.4060 N   0  0  0  0  0  0  0  0  0  0  0  0
  -56.4590   15.1860   23.4420 C   0  0  2  0  0  0  0  0  0  0  0  0
  -56.8010   16.6670   23.3370 C   0  0  0  0  0  0  0  0  0  0  0  0
  -56.8790   17.2010   22.2270 O   0  0  0  0  0  0  0  0  0  0  0  0
  -54.9370   15.0010   23.3410 C   0  0  0  0  0  0  0  0  0  0  0  0
  -54.4810   13.5990   23.6690 C   0  0  0  0  0  0  0  0  0  0  0  0
  -52.9830   13.5090   23.8690 C   0  0  0  0  0  0  0  0  0  0  0  0
  -52.5130   13.0560   24.9130 O   0  0  0  0  0  0  0  0  0  0  0  0
  -52.2230   13.9420   22.8690 N   0  0  0  0  0  0  0  0  0  0  0  0
  -55.2450   19.2560   23.6380 N   0  0  0  0  0  0  0  0  0  0  0  0
  -54.2130   20.0330   22.9700 C   0  0  2  0  0  0  0  0  0  0  0  0
  -54.2970   19.9620   21.4510 C   0  0  0  0  0  0  0  0  0  0  0  0
  -53.5910   20.7180   20.7750 O   0  0  0  0  0  0  0  0  0  0  0  0
  -52.8320   19.5500   23.4190 C   0  0  2  0  0  0  0  0  0  0  0  0
  -51.8280   20.1050   22.5600 O   0  0  0  0  0  0  0  0  0  0  0  0
  -52.7620   18.0310   23.3540 C   0  0  0  0  0  0  0  0  0  0  0  0
  -55.1290   19.0780   20.9030 N   0  0  0  0  0  0  0  0  0  0  0  0
  -55.2000   18.9020   19.4590 C   0  0  2  0  0  0  0  0  0  0  0  0
  -55.6430   20.1860   18.7700 C   0  0  0  0  0  0  0  0  0  0  0  0
  -56.3540   21.0140   19.3430 O   0  0  0  0  0  0  0  0  0  0  0  0
  -56.1750   17.7790   19.1020 C   0  0  0  0  0  0  0  0  0  0  0  0
  -55.6470   16.4110   19.4620 C   0  0  0  0  0  0  0  0  0  0  0  0
  -54.4430   16.2200   19.6240 O   0  0  0  0  0  0  0  0  0  0  0  0
  -56.5480   15.4420   19.5760 N   0  0  0  0  0  0  0  0  0  0  0  0
  -55.2120   20.3460   17.5210 N   0  0  0  0  0  0  0  0  0  0  0  0
  -55.7720   21.3820   16.6840 C   0  0  0  0  0  0  0  0  0  0  0  0
  -57.2430   21.1410   16.4080 C   0  0  0  0  0  0  0  0  0  0  0  0
  -57.7470   20.0190   16.4950 O   0  0  0  0  0  0  0  0  0  0  0  0
  -57.9440   22.2250   16.0630 N   0  0  0  0  0  0  0  0  0  0  0  0
  -59.3970   22.1550   15.9180 C   0  0  2  0  0  0  0  0  0  0  0  0
  -59.7990   21.1330   14.8600 C   0  0  0  0  0  0  0  0  0  0  0  0
  -60.8680   20.5170   14.9560 O   0  0  0  0  0  0  0  0  0  0  0  0
  -59.9660   23.5550   15.6100 C   0  0  0  0  0  0  0  0  0  0  0  0
  -59.5270   24.0310   14.2340 C   0  0  0  0  0  0  0  0  0  0  0  0
  -61.4770   23.5500   15.7250 C   0  0  0  0  0  0  0  0  0  0  0  0
  -58.4410   18.2980   14.5330 N   0  0  0  0  0  0  0  0  0  0  0  0
  -58.2730   16.9910   15.1560 C   0  0  2  0  0  0  0  0  0  0  0  0
  -59.0550   16.8670   16.4570 C   0  0  0  0  0  0  0  0  0  0  0  0
  -58.9120   15.8660   17.1660 O   0  0  0  0  0  0  0  0  0  0  0  0
  -56.7880   16.7080   15.3970 C   0  0  0  0  0  0  0  0  0  0  0  0
  -56.0050   16.5400   14.1160 C   0  0  0  0  0  0  0  0  0  0  0  0
  -55.6270   17.6430   13.3610 C   0  0  0  0  0  0  0  0  0  0  0  0
  -55.6600   15.2790   13.6520 C   0  0  0  0  0  0  0  0  0  0  0  0
  -54.9210   17.4950   12.1840 C   0  0  0  0  0  0  0  0  0  0  0  0
  -54.9520   15.1200   12.4760 C   0  0  0  0  0  0  0  0  0  0  0  0
  -54.5850   16.2310   11.7460 C   0  0  0  0  0  0  0  0  0  0  0  0
  -53.8780   16.0750   10.5740 O   0  0  0  0  0  0  0  0  0  0  0  0
  2  1  1  6
  3  2  1  0
  4  3  2  0
  5  2  1  0
  6  5  1  0
  7  6  1  0
  8  7  1  0
  9  8  1  0
 10  9  1  0
 11  9  2  0
 13 12  1  1
 14 13  1  0
 15 14  2  0
 16 13  1  0
 17 16  1  0
 18 17  1  0
 19 18  2  0
 20 18  1  0
 22 21  1  1
 23 22  1  0
 24 23  2  0
 25 22  1  0
 26 25  1  0
 27 26  2  0
 28 26  1  0
 29 27  1  0
 30 28  2  0
 31 30  1  0
 31 29  2  0
 32 31  1  0
 34 33  1  1
 35 34  1  0
 36 35  2  0
 37 34  1  0
 38 37  1  0
 39 38  2  0
 40 38  1  0
 41 39  1  0
 42 40  2  0
 43 42  1  0
 43 41  2  0
 44 43  1  0
 46 45  1  6
 47 46  1  0
 48 47  2  0
 49 46  1  0
 50 49  1  0
 51 47  1  0
 52 51  1  0
 53 52  1  0
 54 53  2  0
 52 55  1  1
 56 55  1  0
 57 56  2  0
 58 56  1  0
 59 57  1  0
 60 58  2  0
 61 60  1  0
 61 59  2  0
 62 61  1  0
 63 53  1  0
 64 63  1  0
 65 64  1  0
 66 65  2  0
 67 65  1  0
 68 67  1  0
 69 68  1  0
 70 69  2  0
 68 71  1  1
 72 71  1  0
 73 72  2  0
 74 72  1  0
 75 73  1  0
 76 74  2  0
 77 76  1  0
 77 75  2  0
 78 69  1  0
 79 78  1  0
 80 79  1  0
 81 80  2  0
 79 82  1  6
 83 82  1  0
 84 83  1  0
 85 84  2  0
 86 84  1  0
 88 87  1  1
 89 88  1  0
 90 89  2  0
 91 88  1  0
 92 91  1  0
 91 93  1  6
 94 89  1  0
 95 94  1  0
 96 95  1  0
 97 96  2  0
 95 98  1  1
 99 98  1  0
100 99  2  0
101 99  1  0
102 96  1  0
103102  1  0
104103  1  0
105104  2  0
106104  1  0
107106  1  6
108107  1  0
109108  2  0
110107  1  0
111110  1  0
112110  1  0
114113  1  1
115114  1  0
116115  2  0
117114  1  0
118117  1  0
119118  2  0
120118  1  0
121119  1  0
122120  2  0
123122  1  0
123121  2  0
124123  1  0
M  END
$$$$
