
     RDKit          3D

 78 71  0  0  0  0  0  0  0  0999 V2000
   58.8110  -29.7250   31.7060 N   0  0  0  0  0  0  0  0  0  0  0  0
   59.9670  -28.8740   31.4630 C   0  0  2  0  0  0  0  0  0  0  0  0
   60.2930  -28.8400   29.9760 C   0  0  0  0  0  0  0  0  0  0  0  0
   59.7400  -29.5940   29.1710 O   0  0  0  0  0  0  0  0  0  0  0  0
   61.2070  -29.3660   32.2280 C   0  0  0  0  0  0  0  0  0  0  0  0
   60.9000  -29.7960   33.6500 C   0  0  0  0  0  0  0  0  0  0  0  0
   59.9620  -29.2410   34.2600 O   0  0  0  0  0  0  0  0  0  0  0  0
   61.6040  -30.6970   34.1570 O   0  0  0  0  0  0  0  0  0  0  0  0
   63.1100  -29.9000   29.5410 N   0  0  0  0  0  0  0  0  0  0  0  0
   63.5900  -31.2690   29.6760 C   0  0  2  0  0  0  0  0  0  0  0  0
   62.4270  -32.2060   29.3850 C   0  0  0  0  0  0  0  0  0  0  0  0
   61.8570  -32.8030   30.3040 O   0  0  0  0  0  0  0  0  0  0  0  0
   64.1520  -31.5210   31.0790 C   0  0  0  0  0  0  0  0  0  0  0  0
   65.0680  -30.5070   31.4590 O   0  0  0  0  0  0  0  0  0  0  0  0
   60.5560  -34.8650   29.2200 N   0  0  0  0  0  0  0  0  0  0  0  0
   60.4940  -36.2520   29.6480 C   0  0  2  0  0  0  0  0  0  0  0  0
   59.1520  -36.6350   30.2410 C   0  0  0  0  0  0  0  0  0  0  0  0
   58.7390  -37.7890   30.1120 O   0  0  0  0  0  0  0  0  0  0  0  0
   61.5760  -36.5360   30.7040 C   0  0  2  0  0  0  0  0  0  0  0  0
   61.3350  -35.7300   31.8660 O   0  0  0  0  0  0  0  0  0  0  0  0
   62.9670  -36.2280   30.1590 C   0  0  0  0  0  0  0  0  0  0  0  0
   58.4590  -35.6910   30.8790 N   0  0  0  0  0  0  0  0  0  0  0  0
   57.3080  -35.9580   31.7370 C   0  0  2  0  0  0  0  0  0  0  0  0
   56.0800  -35.2570   31.1650 C   0  0  0  0  0  0  0  0  0  0  0  0
   55.7610  -34.1250   31.5610 O   0  0  0  0  0  0  0  0  0  0  0  0
   57.5990  -35.4900   33.1630 C   0  0  0  0  0  0  0  0  0  0  0  0
   56.4700  -35.6680   34.1700 C   0  0  0  0  0  0  0  0  0  0  0  0
   56.9590  -35.5620   35.6060 C   0  0  0  0  0  0  0  0  0  0  0  0
   58.1120  -35.2120   35.8570 O   0  0  0  0  0  0  0  0  0  0  0  0
   56.0780  -35.8610   36.5560 N   0  0  0  0  0  0  0  0  0  0  0  0
   50.3310  -42.1380   55.1760 N   0  0  0  0  0  0  0  0  0  0  0  0
   50.2940  -41.4790   53.8770 C   0  0  2  0  0  0  0  0  0  0  0  0
   50.0520  -42.5280   52.8030 C   0  0  0  0  0  0  0  0  0  0  0  0
   50.7120  -43.5710   52.7980 O   0  0  0  0  0  0  0  0  0  0  0  0
   51.6010  -40.7230   53.6240 C   0  0  0  0  0  0  0  0  0  0  0  0
   51.4360  -39.3840   52.9300 C   0  0  0  0  0  0  0  0  0  0  0  0
   52.7290  -38.5880   52.8970 C   0  0  0  0  0  0  0  0  0  0  0  0
   53.2530  -38.2770   51.8280 O   0  0  0  0  0  0  0  0  0  0  0  0
   53.2440  -38.2450   54.0750 N   0  0  0  0  0  0  0  0  0  0  0  0
   48.0580  -43.2750   48.5660 N   0  0  0  0  0  0  0  0  0  0  0  0
   47.4660  -42.7970   47.3220 C   0  0  2  0  0  0  0  0  0  0  0  0
   46.4670  -43.8370   46.8220 C   0  0  0  0  0  0  0  0  0  0  0  0
   46.4650  -44.9900   47.2580 O   0  0  0  0  0  0  0  0  0  0  0  0
   48.5270  -42.5010   46.2420 C   0  0  2  0  0  0  0  0  0  0  0  0
   49.1540  -43.7980   45.7420 C   0  0  0  0  0  0  0  0  0  0  0  0
   49.6030  -41.5670   46.7760 C   0  0  0  0  0  0  0  0  0  0  0  0
   48.7180  -44.1620   44.3490 C   0  0  0  0  0  0  0  0  0  0  0  0
   51.0570  -34.1520   40.2370 N   0  0  0  0  0  0  0  0  0  0  0  0
   51.0850  -35.4000   39.4820 C   0  0  2  0  0  0  0  0  0  0  0  0
   49.9110  -36.3020   39.8420 C   0  0  0  0  0  0  0  0  0  0  0  0
   49.3610  -36.9790   38.9670 O   0  0  0  0  0  0  0  0  0  0  0  0
   52.4060  -36.1300   39.7230 C   0  0  2  0  0  0  0  0  0  0  0  0
   53.4950  -35.2220   39.5120 O   0  0  0  0  0  0  0  0  0  0  0  0
   52.5450  -37.3110   38.7740 C   0  0  0  0  0  0  0  0  0  0  0  0
   48.1230  -36.9730   46.8200 N   0  0  0  0  0  0  0  0  0  0  0  0
   48.5430  -37.6830   48.0220 C   0  0  2  0  0  0  0  0  0  0  0  0
   47.4900  -37.4770   49.1010 C   0  0  0  0  0  0  0  0  0  0  0  0
   47.1060  -36.3400   49.4020 O   0  0  0  0  0  0  0  0  0  0  0  0
   49.9200  -37.1910   48.4970 C   0  0  0  0  0  0  0  0  0  0  0  0
   50.2040  -37.6830   49.9070 C   0  0  0  0  0  0  0  0  0  0  0  0
   51.0090  -37.6620   47.5480 C   0  0  0  0  0  0  0  0  0  0  0  0
   52.0020  -45.3930   51.3440 N   0  0  0  0  0  0  0  0  0  0  0  0
   53.3200  -44.8370   51.0610 C   0  0  2  0  0  0  0  0  0  0  0  0
   54.1780  -44.6470   52.3000 C   0  0  0  0  0  0  0  0  0  0  0  0
   55.3900  -44.8600   52.2400 O   0  0  0  0  0  0  0  0  0  0  0  0
   53.1960  -43.4930   50.3280 C   0  0  2  0  0  0  0  0  0  0  0  0
   53.0980  -42.4240   51.2790 O   0  0  0  0  0  0  0  0  0  0  0  0
   51.9800  -43.4880   49.4110 C   0  0  0  0  0  0  0  0  0  0  0  0
   53.5920  -44.2440   53.4220 N   0  0  0  0  0  0  0  0  0  0  0  0
   54.3460  -44.0680   54.6600 C   0  0  2  0  0  0  0  0  0  0  0  0
   53.5100  -44.6540   55.7890 C   0  0  0  0  0  0  0  0  0  0  0  0
   52.5470  -44.0310   56.2400 O   0  0  0  0  0  0  0  0  0  0  0  0
   54.6670  -42.6030   54.9160 C   0  0  0  0  0  0  0  0  0  0  0  0
   55.7020  -42.0420   53.9940 C   0  0  0  0  0  0  0  0  0  0  0  0
   55.4770  -41.8530   52.6480 N   0  0  0  0  0  0  0  0  0  0  0  0
   56.9720  -41.6330   54.2240 C   0  0  0  0  0  0  0  0  0  0  0  0
   56.5610  -41.3460   52.0880 C   0  0  0  0  0  0  0  0  0  0  0  0
   57.4840  -41.2050   53.0230 N   0  0  0  0  0  0  0  0  0  0  0  0
  2  1  1  6
  3  2  1  0
  4  3  2  0
  5  2  1  0
  6  5  1  0
  7  6  2  0
  8  6  1  0
 10  9  1  1
 11 10  1  0
 12 11  2  0
 13 10  1  0
 14 13  1  0
 16 15  1  1
 17 16  1  0
 18 17  2  0
 19 16  1  0
 20 19  1  0
 19 21  1  6
 22 17  1  0
 23 22  1  0
 24 23  1  0
 25 24  2  0
 23 26  1  1
 27 26  1  0
 28 27  1  0
 29 28  2  0
 30 28  1  0
 32 31  1  1
 33 32  1  0
 34 33  2  0
 35 32  1  0
 36 35  1  0
 37 36  1  0
 38 37  2  0
 39 37  1  0
 41 40  1  1
 42 41  1  0
 43 42  2  0
 44 41  1  0
 45 44  1  0
 44 46  1  1
 47 45  1  0
 49 48  1  1
 50 49  1  0
 51 50  2  0
 52 49  1  0
 53 52  1  0
 52 54  1  6
 56 55  1  6
 57 56  1  0
 58 57  2  0
 59 56  1  0
 60 59  1  0
 61 59  1  0
 63 62  1  1
 64 63  1  0
 65 64  2  0
 66 63  1  0
 67 66  1  0
 66 68  1  1
 69 64  1  0
 70 69  1  0
 71 70  1  0
 72 71  2  0
 70 73  1  1
 74 73  1  0
 75 74  1  0
 76 74  2  0
 77 75  2  0
 78 77  1  0
 78 76  1  0
M  END
$$$$
