
     RDKit          3D

145144  0  0  0  0  0  0  0  0999 V2000
    8.2470   -3.9900   30.6760 N   0  0  0  0  0  0  0  0  0  0  0  0
    7.7570   -5.1460   29.9290 C   0  0  2  0  0  0  0  0  0  0  0  0
    8.5380   -5.3600   28.6410 C   0  0  0  0  0  0  0  0  0  0  0  0
    8.7740   -6.5050   28.2360 O   0  0  0  0  0  0  0  0  0  0  0  0
    6.2650   -4.9990   29.6220 C   0  0  0  0  0  0  0  0  0  0  0  0
    5.3350   -5.4570   30.7310 C   0  0  0  0  0  0  0  0  0  0  0  0
    3.8980   -5.1880   30.3400 C   0  0  0  0  0  0  0  0  0  0  0  0
    2.9840   -5.1920   31.5500 C   0  0  0  0  0  0  0  0  0  0  0  0
    1.5940   -4.7800   31.1960 N   0  0  0  0  0  0  0  0  0  0  0  0
   11.1280   -8.5630   28.5690 N   0  0  0  0  0  0  0  0  0  0  0  0
   10.6350   -9.7710   27.9200 C   0  0  2  0  0  0  0  0  0  0  0  0
   10.5880   -9.7040   26.3950 C   0  0  0  0  0  0  0  0  0  0  0  0
   10.1230  -10.6650   25.7710 O   0  0  0  0  0  0  0  0  0  0  0  0
    9.2380  -10.1180   28.4600 C   0  0  0  0  0  0  0  0  0  0  0  0
    9.1550  -10.1500   29.9770 C   0  0  0  0  0  0  0  0  0  0  0  0
   10.2210  -10.6040   30.7420 C   0  0  0  0  0  0  0  0  0  0  0  0
    8.0140   -9.7190   30.6430 C   0  0  0  0  0  0  0  0  0  0  0  0
   10.1500  -10.6290   32.1220 C   0  0  0  0  0  0  0  0  0  0  0  0
    7.9380   -9.7430   32.0220 C   0  0  0  0  0  0  0  0  0  0  0  0
    9.0080  -10.1980   32.7590 C   0  0  0  0  0  0  0  0  0  0  0  0
    8.9370  -10.2230   34.1370 O   0  0  0  0  0  0  0  0  0  0  0  0
    5.1390   -9.6650   24.2430 N   0  0  0  0  0  0  0  0  0  0  0  0
    5.1450  -10.7320   25.2320 C   0  0  2  0  0  0  0  0  0  0  0  0
    4.8600  -10.1660   26.6130 C   0  0  0  0  0  0  0  0  0  0  0  0
    5.4690   -9.1760   27.0280 O   0  0  0  0  0  0  0  0  0  0  0  0
    6.4860  -11.4570   25.2140 C   0  0  0  0  0  0  0  0  0  0  0  0
    6.6140  -12.5720   26.2280 C   0  0  0  0  0  0  0  0  0  0  0  0
    7.9460  -13.2610   26.0320 C   0  0  0  0  0  0  0  0  0  0  0  0
    8.0030  -13.8880   24.7180 N   0  0  0  0  0  0  0  0  0  0  0  0
    7.5000  -15.0890   24.4710 C   0  0  0  0  0  0  0  0  0  0  0  0
    6.9250  -15.7730   25.4480 N   0  0  0  0  0  0  0  0  0  0  0  0
    7.5750  -15.6070   23.2600 N   0  0  0  0  0  0  0  0  0  0  0  0
    3.9370  -10.8100   27.3250 N   0  0  0  0  0  0  0  0  0  0  0  0
    3.4080  -10.3330   28.5970 C   0  0  2  0  0  0  0  0  0  0  0  0
    3.9260  -11.0890   29.8060 C   0  0  0  0  0  0  0  0  0  0  0  0
    4.1590  -10.4780   30.8510 O   0  0  0  0  0  0  0  0  0  0  0  0
    1.8850  -10.4240   28.5950 C   0  0  0  0  0  0  0  0  0  0  0  0
    1.3130   -9.6970   29.7910 C   0  0  0  0  0  0  0  0  0  0  0  0
    1.9650   -8.3330   29.8760 C   0  0  0  0  0  0  0  0  0  0  0  0
   -0.1750   -9.5800   29.5990 C   0  0  0  0  0  0  0  0  0  0  0  0
    4.0830  -12.4050   29.7030 N   0  0  0  0  0  0  0  0  0  0  0  0
    4.5770  -13.2320   30.7940 C   0  0  2  0  0  0  0  0  0  0  0  0
    5.8330  -13.9550   30.3400 C   0  0  0  0  0  0  0  0  0  0  0  0
    5.8620  -14.5290   29.2440 O   0  0  0  0  0  0  0  0  0  0  0  0
    3.5290  -14.2530   31.2360 C   0  0  0  0  0  0  0  0  0  0  0  0
    2.2640  -13.6400   31.7440 C   0  0  0  0  0  0  0  0  0  0  0  0
    2.1200  -13.3330   33.0850 C   0  0  0  0  0  0  0  0  0  0  0  0
    1.2120  -13.3850   30.8850 C   0  0  0  0  0  0  0  0  0  0  0  0
    0.9540  -12.7700   33.5610 C   0  0  0  0  0  0  0  0  0  0  0  0
    0.0410  -12.8240   31.3530 C   0  0  0  0  0  0  0  0  0  0  0  0
   -0.0880  -12.5150   32.6930 C   0  0  0  0  0  0  0  0  0  0  0  0
    6.8630  -13.9320   31.1810 N   0  0  0  0  0  0  0  0  0  0  0  0
    8.0750  -14.6920   30.9230 C   0  0  2  0  0  0  0  0  0  0  0  0
    8.7540  -14.9970   32.2520 C   0  0  0  0  0  0  0  0  0  0  0  0
    8.7930  -14.1470   33.1470 O   0  0  0  0  0  0  0  0  0  0  0  0
    9.0230  -13.9320   29.9990 C   0  0  0  0  0  0  0  0  0  0  0  0
   10.0340  -14.8230   29.3400 C   0  0  0  0  0  0  0  0  0  0  0  0
   10.9870  -14.0390   28.4650 C   0  0  0  0  0  0  0  0  0  0  0  0
   11.7720  -14.9500   27.6470 N   0  0  0  0  0  0  0  0  0  0  0  0
   12.9220  -15.4890   28.0320 C   0  0  0  0  0  0  0  0  0  0  0  0
   13.4250  -15.1870   29.2220 N   0  0  0  0  0  0  0  0  0  0  0  0
   13.5680  -16.3260   27.2280 N   0  0  0  0  0  0  0  0  0  0  0  0
    9.2930  -16.2140   32.3700 N   0  0  0  0  0  0  0  0  0  0  0  0
    9.8110  -16.6700   33.6580 C   0  0  2  0  0  0  0  0  0  0  0  0
   11.0480  -15.8820   34.0810 C   0  0  0  0  0  0  0  0  0  0  0  0
   11.2330  -15.6050   35.2740 O   0  0  0  0  0  0  0  0  0  0  0  0
   10.1100  -18.1700   33.5990 C   0  0  0  0  0  0  0  0  0  0  0  0
   10.7240  -18.7420   34.8790 C   0  0  0  0  0  0  0  0  0  0  0  0
    9.8250  -18.5210   36.0920 C   0  0  0  0  0  0  0  0  0  0  0  0
   10.4790  -19.0290   37.3830 C   0  0  0  0  0  0  0  0  0  0  0  0
    9.5970  -18.9220   38.5990 N   0  0  0  0  0  0  0  0  0  0  0  0
    1.9290  -19.9380   29.4180 N   0  0  0  0  0  0  0  0  0  0  0  0
    2.7220  -19.5260   30.5720 C   0  0  2  0  0  0  0  0  0  0  0  0
    2.1230  -20.1190   31.8320 C   0  0  0  0  0  0  0  0  0  0  0  0
    1.0100  -19.7560   32.2220 O   0  0  0  0  0  0  0  0  0  0  0  0
    2.7880  -18.0090   30.6870 C   0  0  0  0  0  0  0  0  0  0  0  0
    3.6780  -17.5530   31.8230 C   0  0  0  0  0  0  0  0  0  0  0  0
    5.0550  -17.5480   31.6810 C   0  0  0  0  0  0  0  0  0  0  0  0
    3.1450  -17.1310   33.0310 C   0  0  0  0  0  0  0  0  0  0  0  0
    5.8830  -17.1380   32.7030 C   0  0  0  0  0  0  0  0  0  0  0  0
    3.9670  -16.7130   34.0630 C   0  0  0  0  0  0  0  0  0  0  0  0
    5.3430  -16.7220   33.8920 C   0  0  0  0  0  0  0  0  0  0  0  0
    6.2030  -16.3190   34.8950 O   0  0  0  0  0  0  0  0  0  0  0  0
    2.8640  -21.0200   32.4710 N   0  0  0  0  0  0  0  0  0  0  0  0
    2.3890  -21.7120   33.6660 C   0  0  2  0  0  0  0  0  0  0  0  0
    2.6520  -20.8200   34.8670 C   0  0  0  0  0  0  0  0  0  0  0  0
    3.7740  -20.7490   35.3720 O   0  0  0  0  0  0  0  0  0  0  0  0
    3.0730  -23.0640   33.8130 C   0  0  0  0  0  0  0  0  0  0  0  0
    2.7700  -23.7720   35.1140 C   0  0  0  0  0  0  0  0  0  0  0  0
    3.6530  -24.9910   35.3030 C   0  0  0  0  0  0  0  0  0  0  0  0
    4.3330  -25.4290   34.3670 O   0  0  0  0  0  0  0  0  0  0  0  0
    3.6580  -25.5420   36.5160 N   0  0  0  0  0  0  0  0  0  0  0  0
    1.6090  -20.1290   35.3190 N   0  0  0  0  0  0  0  0  0  0  0  0
    1.7090  -19.1950   36.4290 C   0  0  2  0  0  0  0  0  0  0  0  0
    1.3000  -19.8190   37.7500 C   0  0  0  0  0  0  0  0  0  0  0  0
    1.5110  -19.2070   38.8030 O   0  0  0  0  0  0  0  0  0  0  0  0
    0.8540  -17.9510   36.1590 C   0  0  0  0  0  0  0  0  0  0  0  0
    0.7310  -21.0240   37.7240 N   0  0  0  0  0  0  0  0  0  0  0  0
    0.2540  -21.6820   38.9170 C   0  0  0  0  0  0  0  0  0  0  0  0
    1.0200  -22.9580   39.2220 C   0  0  0  0  0  0  0  0  0  0  0  0
    1.9830  -23.3250   38.5420 O   0  0  0  0  0  0  0  0  0  0  0  0
    0.5570  -23.6320   40.2740 N   0  0  0  0  0  0  0  0  0  0  0  0
    1.1410  -24.8900   40.7160 C   0  0  2  0  0  0  0  0  0  0  0  0
    0.7300  -26.0730   39.8510 C   0  0  0  0  0  0  0  0  0  0  0  0
    1.2690  -27.1700   40.0350 O   0  0  0  0  0  0  0  0  0  0  0  0
    0.7470  -25.1570   42.1710 C   0  0  0  0  0  0  0  0  0  0  0  0
    1.1790  -24.1050   43.0160 O   0  0  0  0  0  0  0  0  0  0  0  0
   -0.2000  -25.8840   38.9190 N   0  0  0  0  0  0  0  0  0  0  0  0
   -0.6530  -26.9870   38.0900 C   0  0  2  0  0  0  0  0  0  0  0  0
   -0.1300  -26.8510   36.6620 C   0  0  0  0  0  0  0  0  0  0  0  0
   -0.0100  -25.7310   36.1520 O   0  0  0  0  0  0  0  0  0  0  0  0
   -2.1850  -27.0540   38.0690 C   0  0  2  0  0  0  0  0  0  0  0  0
   -2.6560  -27.5110   39.3430 O   0  0  0  0  0  0  0  0  0  0  0  0
   -2.6820  -27.9950   36.9700 C   0  0  0  0  0  0  0  0  0  0  0  0
   -7.1880  -20.8300   34.1600 N   0  0  0  0  0  0  0  0  0  0  0  0
   -6.7750  -20.1640   35.3870 C   0  0  2  0  0  0  0  0  0  0  0  0
   -5.3190  -20.4960   35.6910 C   0  0  0  0  0  0  0  0  0  0  0  0
   -4.9580  -21.6700   35.8290 O   0  0  0  0  0  0  0  0  0  0  0  0
   -7.6770  -20.5730   36.5470 C   0  0  0  0  0  0  0  0  0  0  0  0
   -7.1730  -20.1180   37.8810 C   0  0  0  0  0  0  0  0  0  0  0  0
   -7.3250  -18.8030   38.2800 C   0  0  0  0  0  0  0  0  0  0  0  0
   -6.5340  -21.0040   38.7330 C   0  0  0  0  0  0  0  0  0  0  0  0
   -6.8550  -18.3820   39.5080 C   0  0  0  0  0  0  0  0  0  0  0  0
   -6.0640  -20.5870   39.9630 C   0  0  0  0  0  0  0  0  0  0  0  0
   -6.2250  -19.2750   40.3510 C   0  0  0  0  0  0  0  0  0  0  0  0
   -4.4920  -19.4580   35.8110 N   0  0  0  0  0  0  0  0  0  0  0  0
   -3.0510  -19.6110   35.9990 C   0  0  2  0  0  0  0  0  0  0  0  0
   -2.4040  -20.3330   34.8260 C   0  0  0  0  0  0  0  0  0  0  0  0
   -1.3700  -20.9900   34.9770 O   0  0  0  0  0  0  0  0  0  0  0  0
   -2.7320  -20.3260   37.3080 C   0  0  0  0  0  0  0  0  0  0  0  0
   -2.7050  -19.3760   38.4760 C   0  0  0  0  0  0  0  0  0  0  0  0
   -2.5790  -18.1600   38.2950 O   0  0  0  0  0  0  0  0  0  0  0  0
   -2.8220  -19.9140   39.6850 N   0  0  0  0  0  0  0  0  0  0  0  0
   -1.9340  -18.8530   31.0120 N   0  0  0  0  0  0  0  0  0  0  0  0
   -2.2020  -17.7330   30.1280 C   0  0  2  0  0  0  0  0  0  0  0  0
   -1.3620  -17.8330   28.8650 C   0  0  0  0  0  0  0  0  0  0  0  0
   -0.2910  -18.4480   28.8510 O   0  0  0  0  0  0  0  0  0  0  0  0
   -1.9230  -16.4050   30.8390 C   0  0  0  0  0  0  0  0  0  0  0  0
   -2.6120  -16.2990   32.1770 C   0  0  0  0  0  0  0  0  0  0  0  0
   -3.9490  -16.6360   32.3140 C   0  0  0  0  0  0  0  0  0  0  0  0
   -1.9260  -15.8900   33.3020 C   0  0  0  0  0  0  0  0  0  0  0  0
   -4.5860  -16.5520   33.5280 C   0  0  0  0  0  0  0  0  0  0  0  0
   -2.5520  -15.8060   34.5190 C   0  0  0  0  0  0  0  0  0  0  0  0
   -3.8880  -16.1410   34.6290 C   0  0  0  0  0  0  0  0  0  0  0  0
   -4.5350  -16.0630   35.8470 O   0  0  0  0  0  0  0  0  0  0  0  0
  2  1  1  6
  3  2  1  0
  4  3  2  0
  5  2  1  0
  6  5  1  0
  7  6  1  0
  8  7  1  0
  9  8  1  0
 11 10  1  1
 12 11  1  0
 13 12  2  0
 14 11  1  0
 15 14  1  0
 16 15  2  0
 17 15  1  0
 18 16  1  0
 19 17  2  0
 20 19  1  0
 20 18  2  0
 21 20  1  0
 23 22  1  6
 24 23  1  0
 25 24  2  0
 26 23  1  0
 27 26  1  0
 28 27  1  0
 29 28  1  0
 30 29  1  0
 31 30  1  0
 32 30  2  0
 33 24  1  0
 34 33  1  0
 35 34  1  0
 36 35  2  0
 34 37  1  6
 38 37  1  0
 39 38  1  0
 40 38  1  0
 41 35  1  0
 42 41  1  0
 43 42  1  0
 44 43  2  0
 42 45  1  6
 46 45  1  0
 47 46  2  0
 48 46  1  0
 49 47  1  0
 50 48  2  0
 51 50  1  0
 51 49  2  0
 52 43  1  0
 53 52  1  0
 54 53  1  0
 55 54  2  0
 53 56  1  6
 57 56  1  0
 58 57  1  0
 59 58  1  0
 60 59  1  0
 61 60  1  0
 62 60  2  0
 63 54  1  0
 64 63  1  0
 65 64  1  0
 66 65  2  0
 64 67  1  6
 68 67  1  0
 69 68  1  0
 70 69  1  0
 71 70  1  0
 73 72  1  6
 74 73  1  0
 75 74  2  0
 76 73  1  0
 77 76  1  0
 78 77  2  0
 79 77  1  0
 80 78  1  0
 81 79  2  0
 82 81  1  0
 82 80  2  0
 83 82  1  0
 84 74  1  0
 85 84  1  0
 86 85  1  0
 87 86  2  0
 85 88  1  1
 89 88  1  0
 90 89  1  0
 91 90  2  0
 92 90  1  0
 93 86  1  0
 94 93  1  0
 95 94  1  0
 96 95  2  0
 94 97  1  6
 98 95  1  0
 99 98  1  0
100 99  1  0
101100  2  0
102100  1  0
103102  1  0
104103  1  0
105104  2  0
103106  1  1
107106  1  0
108104  1  0
109108  1  1
110109  1  0
111110  2  0
112109  1  0
113112  1  0
112114  1  6
116115  1  6
117116  1  0
118117  2  0
119116  1  0
120119  1  0
121120  2  0
122120  1  0
123121  1  0
124122  2  0
125124  1  0
125123  2  0
126117  1  0
127126  1  0
128127  1  0
129128  2  0
127130  1  1
131130  1  0
132131  2  0
133131  1  0
135134  1  1
136135  1  0
137136  2  0
138135  1  0
139138  1  0
140139  2  0
141139  1  0
142140  1  0
143141  2  0
144142  2  0
144143  1  0
145144  1  0
M  END
$$$$
