
     RDKit          3D

109106  0  0  0  0  0  0  0  0999 V2000
  171.4420  168.4100  211.7310 N   0  0  0  0  0  0  0  0  0  0  0  0
  170.8950  168.5460  210.3890 C   0  0  2  0  0  0  0  0  0  0  0  0
  170.0350  169.7890  210.2150 C   0  0  0  0  0  0  0  0  0  0  0  0
  169.7890  170.1950  209.0680 O   0  0  0  0  0  0  0  0  0  0  0  0
  170.0910  167.2900  209.9930 C   0  0  0  0  0  0  0  0  0  0  0  0
  170.9610  166.0550  210.0960 C   0  0  0  0  0  0  0  0  0  0  0  0
  168.8640  167.1490  210.8760 C   0  0  0  0  0  0  0  0  0  0  0  0
  169.5670  170.4130  211.2910 N   0  0  0  0  0  0  0  0  0  0  0  0
  168.6950  171.5740  211.2010 C   0  0  2  0  0  0  0  0  0  0  0  0
  169.4470  172.8940  211.3060 C   0  0  0  0  0  0  0  0  0  0  0  0
  168.8110  173.9500  211.3720 O   0  0  0  0  0  0  0  0  0  0  0  0
  167.6090  171.4990  212.2770 C   0  0  0  0  0  0  0  0  0  0  0  0
  168.1710  171.2130  213.6520 C   0  0  0  0  0  0  0  0  0  0  0  0
  169.3820  170.9270  213.7480 O   0  0  0  0  0  0  0  0  0  0  0  0
  167.4040  171.2720  214.6360 O   0  0  0  0  0  0  0  0  0  0  0  0
  170.7730  172.8630  211.3240 N   0  0  0  0  0  0  0  0  0  0  0  0
  171.5420  174.0910  211.3540 C   0  0  0  0  0  0  0  0  0  0  0  0
  173.0190  173.8120  211.2060 C   0  0  0  0  0  0  0  0  0  0  0  0
  173.4930  172.7020  211.4690 O   0  0  0  0  0  0  0  0  0  0  0  0
  173.7430  174.8440  210.7750 N   0  0  0  0  0  0  0  0  0  0  0  0
  175.1920  174.7620  210.6590 C   0  0  2  0  0  0  0  0  0  0  0  0
  175.9050  175.0390  211.9750 C   0  0  0  0  0  0  0  0  0  0  0  0
  177.1060  174.7720  212.0780 O   0  0  0  0  0  0  0  0  0  0  0  0
  175.6900  175.7390  209.5920 C   0  0  0  0  0  0  0  0  0  0  0  0
  175.6940  175.1670  208.2100 C   0  0  0  0  0  0  0  0  0  0  0  0
  175.9580  173.8770  207.8600 C   0  0  0  0  0  0  0  0  0  0  0  0
  175.4140  175.8650  206.9910 C   0  0  0  0  0  0  0  0  0  0  0  0
  175.8640  173.7270  206.4980 N   0  0  0  0  0  0  0  0  0  0  0  0
  175.5290  174.9340  205.9420 C   0  0  0  0  0  0  0  0  0  0  0  0
  175.0760  177.1860  206.6870 C   0  0  0  0  0  0  0  0  0  0  0  0
  175.3210  175.2810  204.6100 C   0  0  0  0  0  0  0  0  0  0  0  0
  174.8690  177.5290  205.3640 C   0  0  0  0  0  0  0  0  0  0  0  0
  174.9920  176.5810  204.3420 C   0  0  0  0  0  0  0  0  0  0  0  0
  171.6850  176.2820  216.4700 N   0  0  0  0  0  0  0  0  0  0  0  0
  171.4700  177.7170  216.3630 C   0  0  2  0  0  0  0  0  0  0  0  0
  170.6600  178.0350  215.1140 C   0  0  0  0  0  0  0  0  0  0  0  0
  170.8220  177.3980  214.0700 O   0  0  0  0  0  0  0  0  0  0  0  0
  172.8060  178.4580  216.3280 C   0  0  0  0  0  0  0  0  0  0  0  0
  172.6390  179.9630  216.4090 C   0  0  0  0  0  0  0  0  0  0  0  0
  172.6320  180.5020  217.5360 O   0  0  0  0  0  0  0  0  0  0  0  0
  172.5090  180.6070  215.3470 O   0  0  0  0  0  0  0  0  0  0  0  0
  169.7800  179.0290  215.2250 N   0  0  0  0  0  0  0  0  0  0  0  0
  168.8960  179.3980  214.1320 C   0  0  2  0  0  0  0  0  0  0  0  0
  169.1420  180.7910  213.5760 C   0  0  0  0  0  0  0  0  0  0  0  0
  168.7160  181.0660  212.4500 O   0  0  0  0  0  0  0  0  0  0  0  0
  167.4280  179.2990  214.5750 C   0  0  0  0  0  0  0  0  0  0  0  0
  166.6560  178.0490  214.1500 C   0  0  0  0  0  0  0  0  0  0  0  0
  167.3350  176.7830  214.6480 C   0  0  0  0  0  0  0  0  0  0  0  0
  165.2250  178.1220  214.6530 C   0  0  0  0  0  0  0  0  0  0  0  0
  169.8090  181.6720  214.3200 N   0  0  0  0  0  0  0  0  0  0  0  0
  170.0580  183.0290  213.8520 C   0  0  2  0  0  0  0  0  0  0  0  0
  171.3060  183.1130  212.9790 C   0  0  0  0  0  0  0  0  0  0  0  0
  171.2710  183.7090  211.8990 O   0  0  0  0  0  0  0  0  0  0  0  0
  170.1800  183.9820  215.0440 C   0  0  0  0  0  0  0  0  0  0  0  0
  170.4510  185.4250  214.6530 C   0  0  0  0  0  0  0  0  0  0  0  0
  169.3380  185.9810  213.7800 C   0  0  0  0  0  0  0  0  0  0  0  0
  168.0760  186.2350  214.5880 C   0  0  0  0  0  0  0  0  0  0  0  0
  168.2230  187.4120  215.4870 N   0  0  0  0  0  0  0  0  0  0  0  0
  172.8070  180.6080  211.4750 N   0  0  0  0  0  0  0  0  0  0  0  0
  172.6130  179.7710  210.2950 C   0  0  2  0  0  0  0  0  0  0  0  0
  171.8270  180.5120  209.2190 C   0  0  0  0  0  0  0  0  0  0  0  0
  172.1390  180.4020  208.0270 O   0  0  0  0  0  0  0  0  0  0  0  0
  171.9060  178.4730  210.6860 C   0  0  2  0  0  0  0  0  0  0  0  0
  172.6430  177.8230  211.7280 O   0  0  0  0  0  0  0  0  0  0  0  0
  171.8030  177.5330  209.4950 C   0  0  0  0  0  0  0  0  0  0  0  0
  170.8060  181.2730  209.6230 N   0  0  0  0  0  0  0  0  0  0  0  0
  170.0230  182.0510  208.6680 C   0  0  2  0  0  0  0  0  0  0  0  0
  170.8660  183.1370  208.0090 C   0  0  0  0  0  0  0  0  0  0  0  0
  170.7530  183.3690  206.7990 O   0  0  0  0  0  0  0  0  0  0  0  0
  168.8100  182.6640  209.3670 C   0  0  0  0  0  0  0  0  0  0  0  0
  168.0820  183.7180  208.5510 C   0  0  0  0  0  0  0  0  0  0  0  0
  167.3100  183.1200  207.3970 C   0  0  0  0  0  0  0  0  0  0  0  0
  166.7290  182.0440  207.5180 O   0  0  0  0  0  0  0  0  0  0  0  0
  167.3000  183.8160  206.2670 N   0  0  0  0  0  0  0  0  0  0  0  0
  172.9670  181.7080  205.3270 N   0  0  0  0  0  0  0  0  0  0  0  0
  172.2130  181.2930  204.1470 C   0  0  2  0  0  0  0  0  0  0  0  0
  171.9820  182.4760  203.2150 C   0  0  0  0  0  0  0  0  0  0  0  0
  172.1310  182.3570  201.9920 O   0  0  0  0  0  0  0  0  0  0  0  0
  170.8920  180.6240  204.5750 C   0  0  2  0  0  0  0  0  0  0  0  0
  171.1460  179.1740  204.9910 C   0  0  0  0  0  0  0  0  0  0  0  0
  169.8520  180.6770  203.4640 C   0  0  0  0  0  0  0  0  0  0  0  0
  169.8980  178.4310  205.4130 C   0  0  0  0  0  0  0  0  0  0  0  0
  171.6420  183.6410  203.7760 N   0  0  0  0  0  0  0  0  0  0  0  0
  171.3560  184.8150  202.9560 C   0  0  2  0  0  0  0  0  0  0  0  0
  172.5890  185.3080  202.2090 C   0  0  0  0  0  0  0  0  0  0  0  0
  172.4650  185.8550  201.1080 O   0  0  0  0  0  0  0  0  0  0  0  0
  170.7850  185.9350  203.8240 C   0  0  0  0  0  0  0  0  0  0  0  0
  169.3790  185.6390  204.3030 C   0  0  0  0  0  0  0  0  0  0  0  0
  168.6500  184.9150  203.5940 O   0  0  0  0  0  0  0  0  0  0  0  0
  169.0030  186.1310  205.3870 O   0  0  0  0  0  0  0  0  0  0  0  0
  170.6250  181.4450  224.6650 N   0  0  0  0  0  0  0  0  0  0  0  0
  170.4280  181.2470  223.2320 C   0  0  2  0  0  0  0  0  0  0  0  0
  169.6620  182.4020  222.5950 C   0  0  0  0  0  0  0  0  0  0  0  0
  170.0210  182.8610  221.5040 O   0  0  0  0  0  0  0  0  0  0  0  0
  169.7050  179.9240  222.9860 C   0  0  0  0  0  0  0  0  0  0  0  0
  170.5660  178.6970  223.2340 C   0  0  0  0  0  0  0  0  0  0  0  0
  170.0510  177.4930  222.4650 C   0  0  0  0  0  0  0  0  0  0  0  0
  169.0740  176.7320  223.2340 N   0  0  0  0  0  0  0  0  0  0  0  0
  169.3120  175.5510  223.7880 C   0  0  0  0  0  0  0  0  0  0  0  0
  170.4920  174.9630  223.6800 N   0  0  0  0  0  0  0  0  0  0  0  0
  168.3420  174.9450  224.4660 N   0  0  0  0  0  0  0  0  0  0  0  0
  168.6100  182.8890  223.2510 N   0  0  0  0  0  0  0  0  0  0  0  0
  167.8140  183.9780  222.7020 C   0  0  2  0  0  0  0  0  0  0  0  0
  168.2550  185.3470  223.2050 C   0  0  0  0  0  0  0  0  0  0  0  0
  167.5790  186.3430  222.9270 O   0  0  0  0  0  0  0  0  0  0  0  0
  166.3250  183.7630  222.9980 C   0  0  0  0  0  0  0  0  0  0  0  0
  166.0530  183.3990  224.4450 C   0  0  0  0  0  0  0  0  0  0  0  0
  166.8990  183.5770  225.3180 O   0  0  0  0  0  0  0  0  0  0  0  0
  164.8540  182.8890  224.7030 N   0  0  0  0  0  0  0  0  0  0  0  0
  2  1  1  1
  3  2  1  0
  4  3  2  0
  5  2  1  0
  6  5  1  0
  7  5  1  0
  8  3  1  0
  9  8  1  0
 10  9  1  0
 11 10  2  0
  9 12  1  1
 13 12  1  0
 14 13  2  0
 15 13  1  0
 16 10  1  0
 17 16  1  0
 18 17  1  0
 19 18  2  0
 20 18  1  0
 21 20  1  0
 22 21  1  0
 23 22  2  0
 21 24  1  6
 25 24  1  0
 26 25  2  0
 27 25  1  0
 28 26  1  0
 29 28  1  0
 29 27  2  0
 30 27  1  0
 31 29  1  0
 32 30  2  0
 33 32  1  0
 33 31  2  0
 35 34  1  6
 36 35  1  0
 37 36  2  0
 38 35  1  0
 39 38  1  0
 40 39  2  0
 41 39  1  0
 42 36  1  0
 43 42  1  0
 44 43  1  0
 45 44  2  0
 43 46  1  1
 47 46  1  0
 48 47  1  0
 49 47  1  0
 50 44  1  0
 51 50  1  0
 52 51  1  0
 53 52  2  0
 51 54  1  1
 55 54  1  0
 56 55  1  0
 57 56  1  0
 58 57  1  0
 60 59  1  1
 61 60  1  0
 62 61  2  0
 63 60  1  0
 64 63  1  0
 63 65  1  6
 66 61  1  0
 67 66  1  0
 68 67  1  0
 69 68  2  0
 67 70  1  1
 71 70  1  0
 72 71  1  0
 73 72  2  0
 74 72  1  0
 76 75  1  1
 77 76  1  0
 78 77  2  0
 79 76  1  0
 80 79  1  0
 79 81  1  6
 82 80  1  0
 83 77  1  0
 84 83  1  0
 85 84  1  0
 86 85  2  0
 84 87  1  1
 88 87  1  0
 89 88  2  0
 90 88  1  0
 92 91  1  1
 93 92  1  0
 94 93  2  0
 95 92  1  0
 96 95  1  0
 97 96  1  0
 98 97  1  0
 99 98  1  0
100 99  1  0
101 99  2  0
102 93  1  0
103102  1  0
104103  1  0
105104  2  0
103106  1  1
107106  1  0
108107  2  0
109107  1  0
M  END
$$$$
