
     RDKit          3D

116116  0  0  0  0  0  0  0  0999 V2000
   18.5670   65.8080   -8.2930 N   0  0  0  0  0  0  0  0  0  0  0  0
   17.3480   66.2320   -7.6050 C   0  0  2  0  0  0  0  0  0  0  0  0
   16.2630   66.4180   -8.6420 C   0  0  0  0  0  0  0  0  0  0  0  0
   16.5650   66.7460   -9.7930 O   0  0  0  0  0  0  0  0  0  0  0  0
   17.5610   67.5990   -6.9710 C   0  0  0  0  0  0  0  0  0  0  0  0
   18.2170   67.5710   -5.6400 C   0  0  0  0  0  0  0  0  0  0  0  0
   18.8960   68.8990   -5.3930 C   0  0  0  0  0  0  0  0  0  0  0  0
   18.0120   70.0680   -5.4890 N   0  0  0  0  0  0  0  0  0  0  0  0
   18.2150   71.2100   -4.8350 C   0  0  0  0  0  0  0  0  0  0  0  0
   19.2510   71.3370   -4.0070 N   0  0  0  0  0  0  0  0  0  0  0  0
   17.3800   72.2300   -4.9930 N   0  0  0  0  0  0  0  0  0  0  0  0
   27.5120   65.2020   -6.5110 N   0  0  0  0  0  0  0  0  0  0  0  0
   27.5040   66.1480   -7.6170 C   0  0  2  0  0  0  0  0  0  0  0  0
   28.7170   67.0540   -7.4610 C   0  0  0  0  0  0  0  0  0  0  0  0
   29.1780   67.2970   -6.3460 O   0  0  0  0  0  0  0  0  0  0  0  0
   26.1980   66.9520   -7.7030 C   0  0  0  0  0  0  0  0  0  0  0  0
   25.9450   67.8580   -6.5200 C   0  0  0  0  0  0  0  0  0  0  0  0
   25.3010   67.3880   -5.3860 C   0  0  0  0  0  0  0  0  0  0  0  0
   26.3110   69.1990   -6.5530 C   0  0  0  0  0  0  0  0  0  0  0  0
   25.0550   68.2180   -4.2980 C   0  0  0  0  0  0  0  0  0  0  0  0
   26.1040   70.0300   -5.4590 C   0  0  0  0  0  0  0  0  0  0  0  0
   25.4420   69.5440   -4.3430 C   0  0  0  0  0  0  0  0  0  0  0  0
   25.2030   70.3470   -3.2500 O   0  0  0  0  0  0  0  0  0  0  0  0
   30.1330   67.1110   -3.7020 N   0  0  0  0  0  0  0  0  0  0  0  0
   29.2480   67.2030   -2.5510 C   0  0  2  0  0  0  0  0  0  0  0  0
   28.2420   66.0870   -2.6180 C   0  0  0  0  0  0  0  0  0  0  0  0
   27.7890   65.7360   -3.7080 O   0  0  0  0  0  0  0  0  0  0  0  0
   28.4810   68.5360   -2.5590 C   0  0  0  0  0  0  0  0  0  0  0  0
   29.3950   69.7200   -2.5870 C   0  0  0  0  0  0  0  0  0  0  0  0
   30.1010   69.8980   -1.2680 C   0  0  0  0  0  0  0  0  0  0  0  0
   29.4600   69.9090   -0.2020 O   0  0  0  0  0  0  0  0  0  0  0  0
   31.4320   70.0690   -1.3210 N   0  0  0  0  0  0  0  0  0  0  0  0
   27.8540   65.5620   -1.4660 N   0  0  0  0  0  0  0  0  0  0  0  0
   26.8360   64.5400   -1.4230 C   0  0  2  0  0  0  0  0  0  0  0  0
   25.4720   65.1950   -1.4130 C   0  0  0  0  0  0  0  0  0  0  0  0
   25.2830   66.2400   -0.7910 O   0  0  0  0  0  0  0  0  0  0  0  0
   26.9940   63.6700   -0.1850 C   0  0  0  0  0  0  0  0  0  0  0  0
   26.0390   62.6230   -0.2300 O   0  0  0  0  0  0  0  0  0  0  0  0
   24.5110   64.5820   -2.1110 N   0  0  0  0  0  0  0  0  0  0  0  0
   23.1460   65.0910   -2.1190 C   0  0  2  0  0  0  0  0  0  0  0  0
   22.4870   64.8970   -0.7470 C   0  0  0  0  0  0  0  0  0  0  0  0
   21.6790   65.7390   -0.3390 O   0  0  0  0  0  0  0  0  0  0  0  0
   22.3170   64.3800   -3.1700 C   0  0  0  0  0  0  0  0  0  0  0  0
   22.3830   64.9950   -4.5440 C   0  0  0  0  0  0  0  0  0  0  0  0
   21.7520   66.2000   -4.8180 C   0  0  0  0  0  0  0  0  0  0  0  0
   23.0100   64.3360   -5.5900 C   0  0  0  0  0  0  0  0  0  0  0  0
   21.7800   66.7530   -6.0880 C   0  0  0  0  0  0  0  0  0  0  0  0
   23.0360   64.8710   -6.8660 C   0  0  0  0  0  0  0  0  0  0  0  0
   22.4190   66.0800   -7.1130 C   0  0  0  0  0  0  0  0  0  0  0  0
   22.4450   66.6020   -8.3770 O   0  0  0  0  0  0  0  0  0  0  0  0
   22.8220   63.7960   -0.0690 N   0  0  0  0  0  0  0  0  0  0  0  0
   22.3010   63.4700    1.2480 C   0  0  0  0  0  0  0  0  0  0  0  0
   20.8060   63.2630    1.2520 C   0  0  0  0  0  0  0  0  0  0  0  0
   20.1310   63.7270    2.1710 O   0  0  0  0  0  0  0  0  0  0  0  0
   20.2750   62.5880    0.2230 N   0  0  0  0  0  0  0  0  0  0  0  0
   18.8470   62.3340    0.0740 C   0  0  2  0  0  0  0  0  0  0  0  0
   18.2370   61.6240    1.2740 C   0  0  0  0  0  0  0  0  0  0  0  0
   18.6100   60.5000    1.6000 O   0  0  0  0  0  0  0  0  0  0  0  0
   18.5640   61.5050   -1.1840 C   0  0  0  0  0  0  0  0  0  0  0  0
   18.9430   62.1230   -2.5080 C   0  0  0  0  0  0  0  0  0  0  0  0
   18.3190   63.2750   -2.9600 C   0  0  0  0  0  0  0  0  0  0  0  0
   19.8810   61.5190   -3.3280 C   0  0  0  0  0  0  0  0  0  0  0  0
   18.6420   63.8220   -4.1970 C   0  0  0  0  0  0  0  0  0  0  0  0
   20.1870   62.0540   -4.5730 C   0  0  0  0  0  0  0  0  0  0  0  0
   19.5500   63.1900   -5.0090 C   0  0  0  0  0  0  0  0  0  0  0  0
   17.2900   62.2730    1.9180 N   0  0  0  0  0  0  0  0  0  0  0  0
   16.5500   61.6990    3.0320 C   0  0  2  0  0  0  0  0  0  0  0  0
   15.1140   61.4930    2.5460 C   0  0  0  0  0  0  0  0  0  0  0  0
   14.6150   62.2980    1.7560 O   0  0  0  0  0  0  0  0  0  0  0  0
   16.5810   62.6460    4.2330 C   0  0  0  0  0  0  0  0  0  0  0  0
   17.9420   62.7130    4.8860 C   0  0  0  0  0  0  0  0  0  0  0  0
   18.0020   63.7290    5.9940 C   0  0  0  0  0  0  0  0  0  0  0  0
   16.9940   64.0840    6.6190 O   0  0  0  0  0  0  0  0  0  0  0  0
   19.1970   64.2190    6.2650 N   0  0  0  0  0  0  0  0  0  0  0  0
   12.3560   62.0890    3.8680 N   0  0  0  0  0  0  0  0  0  0  0  0
   11.5730   63.2400    4.3030 C   0  0  2  0  0  0  0  0  0  0  0  0
   11.7680   64.5120    3.4530 C   0  0  0  0  0  0  0  0  0  0  0  0
   11.0710   65.4990    3.6860 O   0  0  0  0  0  0  0  0  0  0  0  0
   11.8670   63.5200    5.7710 C   0  0  2  0  0  0  0  0  0  0  0  0
   13.2680   63.7760    5.9260 O   0  0  0  0  0  0  0  0  0  0  0  0
   11.4410   62.3750    6.6710 C   0  0  0  0  0  0  0  0  0  0  0  0
   12.7020   64.5060    2.4840 N   0  0  0  0  0  0  0  0  0  0  0  0
   12.9410   65.6770    1.6330 C   0  0  2  0  0  0  0  0  0  0  0  0
   11.6890   66.0910    0.8750 C   0  0  0  0  0  0  0  0  0  0  0  0
   10.9140   65.2290    0.4520 O   0  0  0  0  0  0  0  0  0  0  0  0
   14.0080   65.3670    0.5660 C   0  0  0  0  0  0  0  0  0  0  0  0
   15.4480   65.4790    0.9960 C   0  0  0  0  0  0  0  0  0  0  0  0
   15.7710   65.6480    2.1720 O   0  0  0  0  0  0  0  0  0  0  0  0
   16.3540   65.3610    0.0400 N   0  0  0  0  0  0  0  0  0  0  0  0
   11.5540   67.3930    0.6080 N   0  0  0  0  0  0  0  0  0  0  0  0
   10.4980   67.9010   -0.2660 C   0  0  0  0  0  0  0  0  0  0  0  0
   10.6770   67.3220   -1.6640 C   0  0  0  0  0  0  0  0  0  0  0  0
   11.8180   67.0310   -2.0570 O   0  0  0  0  0  0  0  0  0  0  0  0
    9.5710   67.0630   -2.3940 N   0  0  0  0  0  0  0  0  0  0  0  0
    9.6020   66.3830   -3.6960 C   0  0  2  0  0  0  0  0  0  0  0  0
   10.6770   66.9230   -4.6980 C   0  0  0  0  0  0  0  0  0  0  0  0
   11.3500   66.1190   -5.3510 O   0  0  0  0  0  0  0  0  0  0  0  0
    8.1950   66.3050   -4.3490 C   0  0  0  0  0  0  0  0  0  0  0  0
    7.6700   67.6880   -4.7280 C   0  0  0  0  0  0  0  0  0  0  0  0
    8.1870   65.3500   -5.5490 C   0  0  0  0  0  0  0  0  0  0  0  0
   10.8670   68.2360   -4.7810 N   0  0  0  0  0  0  0  0  0  0  0  0
   11.8610   68.8210   -5.6820 C   0  0  0  0  0  0  0  0  0  0  0  0
   13.3040   68.5010   -5.3250 C   0  0  0  0  0  0  0  0  0  0  0  0
   14.2060   68.6340   -6.1500 O   0  0  0  0  0  0  0  0  0  0  0  0
   13.5260   68.0750   -4.0840 N   0  0  0  0  0  0  0  0  0  0  0  0
   14.8360   67.7250   -3.5220 C   0  0  2  0  0  0  0  0  0  0  0  0
   15.0380   66.2050   -3.3820 C   0  0  0  0  0  0  0  0  0  0  0  0
   16.0500   65.7700   -2.8410 O   0  0  0  0  0  0  0  0  0  0  0  0
   15.0360   68.4140   -2.1550 C   0  0  0  0  0  0  0  0  0  0  0  0
   14.5310   69.8400   -2.1400 C   0  0  0  0  0  0  0  0  0  0  0  0
   14.9250   70.7500   -3.1160 C   0  0  0  0  0  0  0  0  0  0  0  0
   13.5950   70.2560   -1.2030 C   0  0  0  0  0  0  0  0  0  0  0  0
   14.4290   72.0450   -3.1360 C   0  0  0  0  0  0  0  0  0  0  0  0
   13.1090   71.5570   -1.2000 C   0  0  0  0  0  0  0  0  0  0  0  0
   13.5310   72.4490   -2.1690 C   0  0  0  0  0  0  0  0  0  0  0  0
   13.0470   73.7360   -2.1810 O   0  0  0  0  0  0  0  0  0  0  0  0
  2  1  1  6
  3  2  1  0
  4  3  2  0
  5  2  1  0
  6  5  1  0
  7  6  1  0
  8  7  1  0
  9  8  1  0
 10  9  1  0
 11  9  2  0
 13 12  1  1
 14 13  1  0
 15 14  2  0
 16 13  1  0
 17 16  1  0
 18 17  2  0
 19 17  1  0
 20 18  1  0
 21 19  2  0
 22 21  1  0
 22 20  2  0
 23 22  1  0
 25 24  1  6
 26 25  1  0
 27 26  2  0
 28 25  1  0
 29 28  1  0
 30 29  1  0
 31 30  2  0
 32 30  1  0
 33 26  1  0
 34 33  1  0
 35 34  1  0
 36 35  2  0
 34 37  1  1
 38 37  1  0
 39 35  1  0
 40 39  1  0
 41 40  1  0
 42 41  2  0
 40 43  1  6
 44 43  1  0
 45 44  2  0
 46 44  1  0
 47 45  1  0
 48 46  2  0
 49 47  2  0
 49 48  1  0
 50 49  1  0
 51 41  1  0
 52 51  1  0
 53 52  1  0
 54 53  2  0
 55 53  1  0
 56 55  1  0
 57 56  1  0
 58 57  2  0
 56 59  1  6
 60 59  1  0
 61 60  2  0
 62 60  1  0
 63 61  1  0
 64 62  2  0
 65 64  1  0
 65 63  2  0
 66 57  1  0
 67 66  1  0
 68 67  1  0
 69 68  2  0
 67 70  1  1
 71 70  1  0
 72 71  1  0
 73 72  2  0
 74 72  1  0
 76 75  1  6
 77 76  1  0
 78 77  2  0
 79 76  1  0
 80 79  1  0
 79 81  1  1
 82 77  1  0
 83 82  1  0
 84 83  1  0
 85 84  2  0
 83 86  1  6
 87 86  1  0
 88 87  2  0
 89 87  1  0
 90 84  1  0
 91 90  1  0
 92 91  1  0
 93 92  2  0
 94 92  1  0
 95 94  1  1
 96 95  1  0
 97 96  2  0
 98 95  1  0
 99 98  1  0
100 98  1  0
101 96  1  0
102101  1  0
103102  1  0
104103  2  0
105103  1  0
106105  1  0
107106  1  0
108107  2  0
106109  1  1
110109  1  0
111110  2  0
112110  1  0
113111  1  0
114112  2  0
115114  1  0
115113  2  0
116115  1  0
M  END
$$$$
