
     RDKit          3D

128128  0  0  0  0  0  0  0  0999 V2000
 -102.5360   22.8030   88.1830 N   0  0  0  0  0  0  0  0  0  0  0  0
 -102.8800   21.4040   87.9350 C   0  0  2  0  0  0  0  0  0  0  0  0
 -102.1300   20.5480   88.9830 C   0  0  0  0  0  0  0  0  0  0  0  0
 -101.1130   20.9950   89.5150 O   0  0  0  0  0  0  0  0  0  0  0  0
 -102.6050   20.9890   86.4830 C   0  0  0  0  0  0  0  0  0  0  0  0
 -101.3050   21.4860   85.9280 C   0  0  0  0  0  0  0  0  0  0  0  0
 -101.2210   21.2790   84.4360 C   0  0  0  0  0  0  0  0  0  0  0  0
 -100.4560   20.0830   84.1030 N   0  0  0  0  0  0  0  0  0  0  0  0
  -99.9420   19.8330   82.9030 C   0  0  0  0  0  0  0  0  0  0  0  0
 -100.1000   20.7000   81.9100 N   0  0  0  0  0  0  0  0  0  0  0  0
  -99.2620   18.7190   82.6880 N   0  0  0  0  0  0  0  0  0  0  0  0
 -111.1760   27.9990   80.5850 N   0  0  0  0  0  0  0  0  0  0  0  0
 -110.1250   28.9430   80.2040 C   0  0  2  0  0  0  0  0  0  0  0  0
 -110.0980   30.2040   81.1150 C   0  0  0  0  0  0  0  0  0  0  0  0
 -109.4760   31.2220   80.7810 O   0  0  0  0  0  0  0  0  0  0  0  0
 -110.1970   29.2950   78.6940 C   0  0  0  0  0  0  0  0  0  0  0  0
 -110.0830   28.0800   77.7830 C   0  0  0  0  0  0  0  0  0  0  0  0
 -108.8480   27.6490   77.3110 C   0  0  0  0  0  0  0  0  0  0  0  0
 -111.2080   27.3550   77.4090 C   0  0  0  0  0  0  0  0  0  0  0  0
 -108.7400   26.5330   76.4840 C   0  0  0  0  0  0  0  0  0  0  0  0
 -111.1090   26.2280   76.5980 C   0  0  0  0  0  0  0  0  0  0  0  0
 -109.8760   25.8320   76.1200 C   0  0  0  0  0  0  0  0  0  0  0  0
 -109.7830   24.7190   75.3170 O   0  0  0  0  0  0  0  0  0  0  0  0
 -101.8530   30.7220   83.8000 N   0  0  0  0  0  0  0  0  0  0  0  0
 -100.5260   30.5810   84.3700 C   0  0  2  0  0  0  0  0  0  0  0  0
  -99.5610   31.3110   83.4520 C   0  0  0  0  0  0  0  0  0  0  0  0
  -99.8470   31.4300   82.2700 O   0  0  0  0  0  0  0  0  0  0  0  0
 -100.1180   29.1040   84.5790 C   0  0  0  0  0  0  0  0  0  0  0  0
  -99.7990   28.3460   83.3090 C   0  0  0  0  0  0  0  0  0  0  0  0
 -100.7900   27.6590   82.6210 C   0  0  0  0  0  0  0  0  0  0  0  0
  -98.4930   28.2450   82.8410 C   0  0  0  0  0  0  0  0  0  0  0  0
 -100.5040   26.9350   81.4720 C   0  0  0  0  0  0  0  0  0  0  0  0
  -98.1970   27.5430   81.6800 C   0  0  0  0  0  0  0  0  0  0  0  0
  -99.2100   26.8890   80.9980 C   0  0  0  0  0  0  0  0  0  0  0  0
  -98.9630   26.1600   79.8680 O   0  0  0  0  0  0  0  0  0  0  0  0
 -100.7850   31.7930   79.6940 N   0  0  0  0  0  0  0  0  0  0  0  0
 -101.3700   30.7260   78.9280 C   0  0  2  0  0  0  0  0  0  0  0  0
 -102.4620   30.1170   79.7610 C   0  0  0  0  0  0  0  0  0  0  0  0
 -102.3650   30.0620   80.9780 O   0  0  0  0  0  0  0  0  0  0  0  0
 -100.3300   29.6640   78.5770 C   0  0  0  0  0  0  0  0  0  0  0  0
  -99.2710   30.1520   77.5860 C   0  0  0  0  0  0  0  0  0  0  0  0
  -99.7890   30.3870   76.1930 C   0  0  0  0  0  0  0  0  0  0  0  0
 -100.3930   29.4860   75.5790 O   0  0  0  0  0  0  0  0  0  0  0  0
  -99.5420   31.5920   75.6600 N   0  0  0  0  0  0  0  0  0  0  0  0
 -103.5100   29.6740   79.1050 N   0  0  0  0  0  0  0  0  0  0  0  0
 -104.6280   29.0680   79.7740 C   0  0  2  0  0  0  0  0  0  0  0  0
 -104.3670   27.6360   80.1320 C   0  0  0  0  0  0  0  0  0  0  0  0
 -103.5950   26.9330   79.4620 O   0  0  0  0  0  0  0  0  0  0  0  0
 -105.8920   29.2060   78.9450 C   0  0  0  0  0  0  0  0  0  0  0  0
 -106.9850   29.1220   79.8390 O   0  0  0  0  0  0  0  0  0  0  0  0
 -104.9960   27.2100   81.2250 N   0  0  0  0  0  0  0  0  0  0  0  0
 -104.8350   25.8440   81.6710 C   0  0  2  0  0  0  0  0  0  0  0  0
 -105.6240   24.9440   80.7800 C   0  0  0  0  0  0  0  0  0  0  0  0
 -105.0620   23.9970   80.2300 O   0  0  0  0  0  0  0  0  0  0  0  0
 -105.1710   25.6650   83.1560 C   0  0  0  0  0  0  0  0  0  0  0  0
 -103.9380   25.6710   84.0390 C   0  0  0  0  0  0  0  0  0  0  0  0
 -102.8460   24.8660   83.7480 C   0  0  0  0  0  0  0  0  0  0  0  0
 -103.8610   26.4930   85.1560 C   0  0  0  0  0  0  0  0  0  0  0  0
 -101.7120   24.8720   84.5450 C   0  0  0  0  0  0  0  0  0  0  0  0
 -102.7330   26.5060   85.9640 C   0  0  0  0  0  0  0  0  0  0  0  0
 -101.6660   25.6850   85.6590 C   0  0  0  0  0  0  0  0  0  0  0  0
 -100.5370   25.7120   86.4330 O   0  0  0  0  0  0  0  0  0  0  0  0
 -106.8910   25.2830   80.5610 N   0  0  0  0  0  0  0  0  0  0  0  0
 -107.7350   24.4710   79.6980 C   0  0  0  0  0  0  0  0  0  0  0  0
 -108.0480   23.1780   80.4100 C   0  0  0  0  0  0  0  0  0  0  0  0
 -107.4860   22.1170   80.1060 O   0  0  0  0  0  0  0  0  0  0  0  0
 -108.8340   23.3120   81.4640 N   0  0  0  0  0  0  0  0  0  0  0  0
 -109.2060   22.1870   82.2820 C   0  0  2  0  0  0  0  0  0  0  0  0
 -110.4610   21.5510   81.7590 C   0  0  0  0  0  0  0  0  0  0  0  0
 -111.5150   22.1720   81.7500 O   0  0  0  0  0  0  0  0  0  0  0  0
 -109.4310   22.6380   83.7220 C   0  0  0  0  0  0  0  0  0  0  0  0
 -108.1780   23.0140   84.4730 C   0  0  0  0  0  0  0  0  0  0  0  0
 -107.1410   22.1170   84.6100 C   0  0  0  0  0  0  0  0  0  0  0  0
 -108.0630   24.2450   85.0880 C   0  0  0  0  0  0  0  0  0  0  0  0
 -106.0100   22.4500   85.3330 C   0  0  0  0  0  0  0  0  0  0  0  0
 -106.9350   24.5660   85.8260 C   0  0  0  0  0  0  0  0  0  0  0  0
 -105.9220   23.6630   85.9540 C   0  0  0  0  0  0  0  0  0  0  0  0
 -110.3540   20.3060   81.3380 N   0  0  0  0  0  0  0  0  0  0  0  0
 -111.4970   19.5290   80.9070 C   0  0  2  0  0  0  0  0  0  0  0  0
 -111.7450   18.4400   81.9560 C   0  0  0  0  0  0  0  0  0  0  0  0
 -110.8220   18.0270   82.6790 O   0  0  0  0  0  0  0  0  0  0  0  0
 -111.2360   18.9220   79.5270 C   0  0  0  0  0  0  0  0  0  0  0  0
 -111.4880   19.9130   78.4180 C   0  0  0  0  0  0  0  0  0  0  0  0
 -110.8790   19.4710   77.1200 C   0  0  0  0  0  0  0  0  0  0  0  0
 -111.1380   18.3770   76.6180 O   0  0  0  0  0  0  0  0  0  0  0  0
 -110.0570   20.3220   76.5400 N   0  0  0  0  0  0  0  0  0  0  0  0
 -112.3500   15.3470   81.4090 N   0  0  0  0  0  0  0  0  0  0  0  0
 -111.7480   14.1050   80.8980 C   0  0  2  0  0  0  0  0  0  0  0  0
 -110.2170   13.9970   81.0940 C   0  0  0  0  0  0  0  0  0  0  0  0
 -109.6300   12.9570   80.7880 O   0  0  0  0  0  0  0  0  0  0  0  0
 -112.1210   13.9160   79.4170 C   0  0  2  0  0  0  0  0  0  0  0  0
 -111.8390   15.1170   78.6890 O   0  0  0  0  0  0  0  0  0  0  0  0
 -113.5770   13.5390   79.2320 C   0  0  0  0  0  0  0  0  0  0  0  0
 -109.5810   15.0730   81.5890 N   0  0  0  0  0  0  0  0  0  0  0  0
 -108.1400   15.1710   81.8120 C   0  0  2  0  0  0  0  0  0  0  0  0
 -107.6160   14.1250   82.7850 C   0  0  0  0  0  0  0  0  0  0  0  0
 -108.3520   13.6640   83.6590 O   0  0  0  0  0  0  0  0  0  0  0  0
 -107.8120   16.5610   82.3630 C   0  0  0  0  0  0  0  0  0  0  0  0
 -107.5700   17.6200   81.3180 C   0  0  0  0  0  0  0  0  0  0  0  0
 -107.8080   17.4190   80.1150 O   0  0  0  0  0  0  0  0  0  0  0  0
 -107.0840   18.7870   81.7600 N   0  0  0  0  0  0  0  0  0  0  0  0
 -106.3340   13.7960   82.6620 N   0  0  0  0  0  0  0  0  0  0  0  0
 -105.6660   12.8890   83.5940 C   0  0  0  0  0  0  0  0  0  0  0  0
 -105.6440   13.4950   84.9880 C   0  0  0  0  0  0  0  0  0  0  0  0
 -105.6480   14.7190   85.1020 O   0  0  0  0  0  0  0  0  0  0  0  0
 -105.6700   12.6840   86.0640 N   0  0  0  0  0  0  0  0  0  0  0  0
 -105.7500   13.2270   87.4330 C   0  0  2  0  0  0  0  0  0  0  0  0
 -104.6490   14.2500   87.7510 C   0  0  0  0  0  0  0  0  0  0  0  0
 -104.9200   15.2480   88.4160 O   0  0  0  0  0  0  0  0  0  0  0  0
 -105.8380   12.1520   88.5270 C   0  0  0  0  0  0  0  0  0  0  0  0
 -106.1880   12.7920   89.8620 C   0  0  0  0  0  0  0  0  0  0  0  0
 -106.8650   11.0920   88.1570 C   0  0  0  0  0  0  0  0  0  0  0  0
 -103.4480   14.0310   87.2330 N   0  0  0  0  0  0  0  0  0  0  0  0
 -102.3540   14.9720   87.4290 C   0  0  0  0  0  0  0  0  0  0  0  0
 -102.5650   16.2740   86.6860 C   0  0  0  0  0  0  0  0  0  0  0  0
 -102.0990   17.3180   87.1090 O   0  0  0  0  0  0  0  0  0  0  0  0
 -103.2900   16.2390   85.5930 N   0  0  0  0  0  0  0  0  0  0  0  0
 -103.5460   17.4060   84.7470 C   0  0  2  0  0  0  0  0  0  0  0  0
 -104.9460   18.0170   85.0090 C   0  0  0  0  0  0  0  0  0  0  0  0
 -105.4640   18.7510   84.1670 O   0  0  0  0  0  0  0  0  0  0  0  0
 -103.3470   17.0370   83.2550 C   0  0  0  0  0  0  0  0  0  0  0  0
 -102.2600   15.9970   83.0330 C   0  0  0  0  0  0  0  0  0  0  0  0
 -100.9780   16.1810   83.5460 C   0  0  0  0  0  0  0  0  0  0  0  0
 -102.5500   14.7730   82.4410 C   0  0  0  0  0  0  0  0  0  0  0  0
 -100.0000   15.2010   83.4220 C   0  0  0  0  0  0  0  0  0  0  0  0
 -101.5740   13.7940   82.2950 C   0  0  0  0  0  0  0  0  0  0  0  0
 -100.2950   14.0170   82.7760 C   0  0  0  0  0  0  0  0  0  0  0  0
  -99.3090   13.0610   82.6430 O   0  0  0  0  0  0  0  0  0  0  0  0
  2  1  1  6
  3  2  1  0
  4  3  2  0
  5  2  1  0
  6  5  1  0
  7  6  1  0
  8  7  1  0
  9  8  1  0
 10  9  1  0
 11  9  2  0
 13 12  1  1
 14 13  1  0
 15 14  2  0
 16 13  1  0
 17 16  1  0
 18 17  2  0
 19 17  1  0
 20 18  1  0
 21 19  2  0
 22 21  1  0
 22 20  2  0
 23 22  1  0
 25 24  1  6
 26 25  1  0
 27 26  2  0
 28 25  1  0
 29 28  1  0
 30 29  2  0
 31 29  1  0
 32 30  1  0
 33 31  2  0
 34 32  2  0
 34 33  1  0
 35 34  1  0
 37 36  1  1
 38 37  1  0
 39 38  2  0
 40 37  1  0
 41 40  1  0
 42 41  1  0
 43 42  2  0
 44 42  1  0
 45 38  1  0
 46 45  1  0
 47 46  1  0
 48 47  2  0
 46 49  1  6
 50 49  1  0
 51 47  1  0
 52 51  1  0
 53 52  1  0
 54 53  2  0
 52 55  1  1
 56 55  1  0
 57 56  2  0
 58 56  1  0
 59 57  1  0
 60 58  2  0
 61 60  1  0
 61 59  2  0
 62 61  1  0
 63 53  1  0
 64 63  1  0
 65 64  1  0
 66 65  2  0
 67 65  1  0
 68 67  1  0
 69 68  1  0
 70 69  2  0
 68 71  1  1
 72 71  1  0
 73 72  2  0
 74 72  1  0
 75 73  1  0
 76 74  2  0
 77 76  1  0
 77 75  2  0
 78 69  1  0
 79 78  1  0
 80 79  1  0
 81 80  2  0
 79 82  1  6
 83 82  1  0
 84 83  1  0
 85 84  2  0
 86 84  1  0
 88 87  1  6
 89 88  1  0
 90 89  2  0
 91 88  1  0
 92 91  1  0
 91 93  1  1
 94 89  1  0
 95 94  1  0
 96 95  1  0
 97 96  2  0
 95 98  1  1
 99 98  1  0
100 99  2  0
101 99  1  0
102 96  1  0
103102  1  0
104103  1  0
105104  2  0
106104  1  0
107106  1  6
108107  1  0
109108  2  0
110107  1  0
111110  1  0
112110  1  0
113108  1  0
114113  1  0
115114  1  0
116115  2  0
117115  1  0
118117  1  0
119118  1  0
120119  2  0
118121  1  6
122121  1  0
123122  2  0
124122  1  0
125123  1  0
126124  2  0
127126  1  0
127125  2  0
128127  1  0
M  END
$$$$
