
     RDKit          3D

117116  0  0  0  0  0  0  0  0999 V2000
   -2.7640   56.3920    4.2970 N   0  0  0  0  0  0  0  0  0  0  0  0
   -3.9500   55.8730    3.5970 C   0  0  2  0  0  0  0  0  0  0  0  0
   -5.0910   55.7010    4.6110 C   0  0  0  0  0  0  0  0  0  0  0  0
   -4.8320   55.5640    5.8070 O   0  0  0  0  0  0  0  0  0  0  0  0
   -3.6810   54.4980    2.9730 C   0  0  0  0  0  0  0  0  0  0  0  0
   -2.5350   54.4490    2.0320 C   0  0  0  0  0  0  0  0  0  0  0  0
   -2.7050   53.3480    1.0490 C   0  0  0  0  0  0  0  0  0  0  0  0
   -2.7970   52.0060    1.6330 N   0  0  0  0  0  0  0  0  0  0  0  0
   -2.7020   50.8820    0.9180 C   0  0  0  0  0  0  0  0  0  0  0  0
   -2.4590   50.9350   -0.3910 N   0  0  0  0  0  0  0  0  0  0  0  0
   -2.8170   49.6980    1.5100 N   0  0  0  0  0  0  0  0  0  0  0  0
    3.1920   61.6520   -5.4660 N   0  0  0  0  0  0  0  0  0  0  0  0
    4.6210   61.3460   -5.3220 C   0  0  2  0  0  0  0  0  0  0  0  0
    5.3470   62.1800   -4.2660 C   0  0  0  0  0  0  0  0  0  0  0  0
    6.4820   61.8460   -3.9310 O   0  0  0  0  0  0  0  0  0  0  0  0
    5.3890   61.3780   -6.6610 C   0  0  0  0  0  0  0  0  0  0  0  0
    4.8370   60.3960   -7.6680 C   0  0  0  0  0  0  0  0  0  0  0  0
    4.0910   60.8290   -8.7550 C   0  0  0  0  0  0  0  0  0  0  0  0
    5.0070   59.0300   -7.5000 C   0  0  0  0  0  0  0  0  0  0  0  0
    3.5400   59.9300   -9.6560 C   0  0  0  0  0  0  0  0  0  0  0  0
    4.4560   58.1190   -8.3920 C   0  0  0  0  0  0  0  0  0  0  0  0
    3.7250   58.5740   -9.4720 C   0  0  0  0  0  0  0  0  0  0  0  0
    3.1920   57.6800  -10.3690 O   0  0  0  0  0  0  0  0  0  0  0  0
    6.4120   57.1140    2.6510 N   0  0  0  0  0  0  0  0  0  0  0  0
    6.3820   56.3230    3.8530 C   0  0  2  0  0  0  0  0  0  0  0  0
    7.6180   55.4070    3.8460 C   0  0  0  0  0  0  0  0  0  0  0  0
    8.0450   54.9570    2.7900 O   0  0  0  0  0  0  0  0  0  0  0  0
    5.0530   55.5300    4.0010 C   0  0  0  0  0  0  0  0  0  0  0  0
    4.8160   54.4840    2.9290 C   0  0  0  0  0  0  0  0  0  0  0  0
    4.2240   54.8210    1.7200 C   0  0  0  0  0  0  0  0  0  0  0  0
    5.2060   53.1650    3.1180 C   0  0  0  0  0  0  0  0  0  0  0  0
    4.0540   53.8850    0.7180 C   0  0  0  0  0  0  0  0  0  0  0  0
    5.0370   52.2150    2.1220 C   0  0  0  0  0  0  0  0  0  0  0  0
    4.4440   52.5760    0.9270 C   0  0  0  0  0  0  0  0  0  0  0  0
    4.2220   51.6410   -0.0490 O   0  0  0  0  0  0  0  0  0  0  0  0
    8.9910   54.8930    0.0910 N   0  0  0  0  0  0  0  0  0  0  0  0
    8.1440   54.6070   -1.0510 C   0  0  2  0  0  0  0  0  0  0  0  0
    7.0920   55.6860   -1.1840 C   0  0  0  0  0  0  0  0  0  0  0  0
    6.5160   56.1240   -0.2010 O   0  0  0  0  0  0  0  0  0  0  0  0
    7.5030   53.2090   -0.9930 C   0  0  0  0  0  0  0  0  0  0  0  0
    7.5620   52.4690   -2.3640 C   0  0  0  0  0  0  0  0  0  0  0  0
    6.5610   52.9570   -3.4190 C   0  0  0  0  0  0  0  0  0  0  0  0
    6.9040   53.6620   -4.3880 O   0  0  0  0  0  0  0  0  0  0  0  0
    5.2940   52.6370   -3.2360 N   0  0  0  0  0  0  0  0  0  0  0  0
    6.8810   56.1570   -2.3960 N   0  0  0  0  0  0  0  0  0  0  0  0
    5.8620   57.1450   -2.6660 C   0  0  2  0  0  0  0  0  0  0  0  0
    4.4670   56.4930   -2.6210 C   0  0  0  0  0  0  0  0  0  0  0  0
    4.2960   55.3430   -3.0230 O   0  0  0  0  0  0  0  0  0  0  0  0
    6.1160   57.8040   -4.0070 C   0  0  0  0  0  0  0  0  0  0  0  0
    5.0330   58.6810   -4.2300 O   0  0  0  0  0  0  0  0  0  0  0  0
    3.4870   57.2230   -2.1000 N   0  0  0  0  0  0  0  0  0  0  0  0
    2.1260   56.7220   -1.9880 C   0  0  2  0  0  0  0  0  0  0  0  0
    1.4490   56.6260   -3.3640 C   0  0  0  0  0  0  0  0  0  0  0  0
    0.7470   55.6440   -3.6430 O   0  0  0  0  0  0  0  0  0  0  0  0
    1.3170   57.5960   -1.0270 C   0  0  0  0  0  0  0  0  0  0  0  0
    1.3280   57.1170    0.4090 C   0  0  0  0  0  0  0  0  0  0  0  0
    0.7570   55.9030    0.7610 C   0  0  0  0  0  0  0  0  0  0  0  0
    1.7990   57.9300    1.4290 C   0  0  0  0  0  0  0  0  0  0  0  0
    0.7330   55.4740    2.0800 C   0  0  0  0  0  0  0  0  0  0  0  0
    1.7600   57.5200    2.7540 C   0  0  0  0  0  0  0  0  0  0  0  0
    1.2320   56.2900    3.0750 C   0  0  0  0  0  0  0  0  0  0  0  0
    1.2020   55.8760    4.3800 O   0  0  0  0  0  0  0  0  0  0  0  0
    1.7080   57.6250   -4.2120 N   0  0  0  0  0  0  0  0  0  0  0  0
    1.2010   57.6710   -5.5780 C   0  0  0  0  0  0  0  0  0  0  0  0
   -0.3020   57.7940   -5.6130 C   0  0  0  0  0  0  0  0  0  0  0  0
   -0.9680   57.0630   -6.3480 O   0  0  0  0  0  0  0  0  0  0  0  0
   -0.8380   58.7060   -4.7850 N   0  0  0  0  0  0  0  0  0  0  0  0
   -2.2710   58.9440   -4.6450 C   0  0  2  0  0  0  0  0  0  0  0  0
   -2.9060   59.4950   -5.9090 C   0  0  0  0  0  0  0  0  0  0  0  0
   -2.4980   60.5430   -6.3970 O   0  0  0  0  0  0  0  0  0  0  0  0
   -2.5620   59.9030   -3.4680 C   0  0  0  0  0  0  0  0  0  0  0  0
   -2.2400   59.4000   -2.0790 C   0  0  0  0  0  0  0  0  0  0  0  0
   -2.8490   58.2640   -1.5770 C   0  0  0  0  0  0  0  0  0  0  0  0
   -1.3970   60.1120   -1.2450 C   0  0  0  0  0  0  0  0  0  0  0  0
   -2.5880   57.8280   -0.2830 C   0  0  0  0  0  0  0  0  0  0  0  0
   -1.1550   59.6870    0.0560 C   0  0  0  0  0  0  0  0  0  0  0  0
   -1.7540   58.5490    0.5300 C   0  0  0  0  0  0  0  0  0  0  0  0
   -3.9210   58.7900   -6.4160 N   0  0  0  0  0  0  0  0  0  0  0  0
   -4.7230   59.1830   -7.5760 C   0  0  2  0  0  0  0  0  0  0  0  0
   -6.1900   59.2790   -7.1140 C   0  0  0  0  0  0  0  0  0  0  0  0
   -6.5890   58.5300   -6.2210 O   0  0  0  0  0  0  0  0  0  0  0  0
   -4.6010   58.1490   -8.7100 C   0  0  0  0  0  0  0  0  0  0  0  0
   -3.1750   57.7920   -9.1100 C   0  0  0  0  0  0  0  0  0  0  0  0
   -3.0990   56.4970   -9.8990 C   0  0  0  0  0  0  0  0  0  0  0  0
   -4.1160   55.8550  -10.2300 O   0  0  0  0  0  0  0  0  0  0  0  0
   -1.8800   56.0800  -10.2280 N   0  0  0  0  0  0  0  0  0  0  0  0
   -8.7620   58.1190   -8.3710 N   0  0  0  0  0  0  0  0  0  0  0  0
   -9.4560   56.9190   -8.8080 C   0  0  2  0  0  0  0  0  0  0  0  0
   -9.0970   55.6950   -7.9300 C   0  0  0  0  0  0  0  0  0  0  0  0
   -9.1890   54.5550   -8.4010 O   0  0  0  0  0  0  0  0  0  0  0  0
   -9.1410   56.6570  -10.2910 C   0  0  2  0  0  0  0  0  0  0  0  0
   -7.7730   56.2390  -10.4350 O   0  0  0  0  0  0  0  0  0  0  0  0
   -9.4280   57.8700  -11.1670 C   0  0  0  0  0  0  0  0  0  0  0  0
   -8.6760   55.9270   -6.6690 N   0  0  0  0  0  0  0  0  0  0  0  0
   -8.3390   54.8490   -5.7320 C   0  0  2  0  0  0  0  0  0  0  0  0
   -9.5720   54.5120   -4.8940 C   0  0  0  0  0  0  0  0  0  0  0  0
  -10.4260   55.3800   -4.6700 O   0  0  0  0  0  0  0  0  0  0  0  0
   -7.2420   55.3080   -4.7610 C   0  0  0  0  0  0  0  0  0  0  0  0
   -5.8470   55.3170   -5.3110 C   0  0  0  0  0  0  0  0  0  0  0  0
   -5.6270   55.2130   -6.5170 O   0  0  0  0  0  0  0  0  0  0  0  0
   -4.8670   55.4480   -4.4280 N   0  0  0  0  0  0  0  0  0  0  0  0
   -9.6330   53.2820   -4.3720 N   0  0  0  0  0  0  0  0  0  0  0  0
  -10.7070   52.9020   -3.4530 C   0  0  0  0  0  0  0  0  0  0  0  0
  -10.5750   53.7050   -2.1650 C   0  0  0  0  0  0  0  0  0  0  0  0
   -9.4550   54.0630   -1.7980 O   0  0  0  0  0  0  0  0  0  0  0  0
   -7.7390   53.5120    0.3160 N   0  0  0  0  0  0  0  0  0  0  0  0
   -6.4220   53.7550   -0.2680 C   0  0  2  0  0  0  0  0  0  0  0  0
   -6.2280   55.2230   -0.6820 C   0  0  0  0  0  0  0  0  0  0  0  0
   -5.1960   55.5570   -1.2450 O   0  0  0  0  0  0  0  0  0  0  0  0
   -6.1320   52.7770   -1.4360 C   0  0  0  0  0  0  0  0  0  0  0  0
   -6.6990   51.3880   -1.2110 C   0  0  0  0  0  0  0  0  0  0  0  0
   -7.7860   50.9340   -1.9440 C   0  0  0  0  0  0  0  0  0  0  0  0
   -6.2490   50.5940   -0.1640 C   0  0  0  0  0  0  0  0  0  0  0  0
   -8.3600   49.6930   -1.6930 C   0  0  0  0  0  0  0  0  0  0  0  0
   -6.8250   49.3560    0.1060 C   0  0  0  0  0  0  0  0  0  0  0  0
   -7.8720   48.9020   -0.6700 C   0  0  0  0  0  0  0  0  0  0  0  0
   -8.4340   47.6720   -0.4100 O   0  0  0  0  0  0  0  0  0  0  0  0
  2  1  1  1
  3  2  1  0
  4  3  2  0
  5  2  1  0
  6  5  1  0
  7  6  1  0
  8  7  1  0
  9  8  1  0
 10  9  1  0
 11  9  2  0
 13 12  1  6
 14 13  1  0
 15 14  2  0
 16 13  1  0
 17 16  1  0
 18 17  2  0
 19 17  1  0
 20 18  1  0
 21 19  2  0
 22 21  1  0
 22 20  2  0
 23 22  1  0
 25 24  1  6
 26 25  1  0
 27 26  2  0
 28 25  1  0
 29 28  1  0
 30 29  2  0
 31 29  1  0
 32 30  1  0
 33 31  2  0
 34 33  1  0
 34 32  2  0
 35 34  1  0
 37 36  1  1
 38 37  1  0
 39 38  2  0
 40 37  1  0
 41 40  1  0
 42 41  1  0
 43 42  2  0
 44 42  1  0
 45 38  1  0
 46 45  1  0
 47 46  1  0
 48 47  2  0
 46 49  1  6
 50 49  1  0
 51 47  1  0
 52 51  1  0
 53 52  1  0
 54 53  2  0
 52 55  1  1
 56 55  1  0
 57 56  2  0
 58 56  1  0
 59 57  1  0
 60 58  2  0
 61 60  1  0
 61 59  2  0
 62 61  1  0
 63 53  1  0
 64 63  1  0
 65 64  1  0
 66 65  2  0
 67 65  1  0
 68 67  1  0
 69 68  1  0
 70 69  2  0
 68 71  1  1
 72 71  1  0
 73 72  2  0
 74 72  1  0
 75 73  1  0
 76 74  2  0
 77 76  1  0
 77 75  2  0
 78 69  1  0
 79 78  1  0
 80 79  1  0
 81 80  2  0
 79 82  1  6
 83 82  1  0
 84 83  1  0
 85 84  2  0
 86 84  1  0
 88 87  1  1
 89 88  1  0
 90 89  2  0
 91 88  1  0
 92 91  1  0
 91 93  1  6
 94 89  1  0
 95 94  1  0
 96 95  1  0
 97 96  2  0
 95 98  1  1
 99 98  1  0
100 99  2  0
101 99  1  0
102 96  1  0
103102  1  0
104103  1  0
105104  2  0
107106  1  6
108107  1  0
109108  2  0
110107  1  0
111110  1  0
112111  2  0
113111  1  0
114112  1  0
115113  2  0
116115  1  0
116114  2  0
117116  1  0
M  END
$$$$
