
     RDKit          3D

116116  0  0  0  0  0  0  0  0999 V2000
    1.8990  -56.1340    3.6340 N   0  0  0  0  0  0  0  0  0  0  0  0
    3.1220  -55.6950    2.9360 C   0  0  2  0  0  0  0  0  0  0  0  0
    4.2520  -55.5540    3.9770 C   0  0  0  0  0  0  0  0  0  0  0  0
    3.9740  -55.4410    5.1760 O   0  0  0  0  0  0  0  0  0  0  0  0
    2.9500  -54.3540    2.2050 C   0  0  0  0  0  0  0  0  0  0  0  0
    1.5670  -54.0980    1.6950 C   0  0  0  0  0  0  0  0  0  0  0  0
    1.4240  -52.9950    0.6640 C   0  0  0  0  0  0  0  0  0  0  0  0
    2.1860  -51.7690    0.9350 N   0  0  0  0  0  0  0  0  0  0  0  0
    2.0180  -50.6300    0.2650 C   0  0  0  0  0  0  0  0  0  0  0  0
    1.0790  -50.5320   -0.6720 N   0  0  0  0  0  0  0  0  0  0  0  0
    2.7710  -49.5730    0.5400 N   0  0  0  0  0  0  0  0  0  0  0  0
   -7.0820  -56.6320    2.3330 N   0  0  0  0  0  0  0  0  0  0  0  0
   -7.0800  -55.8170    3.5410 C   0  0  2  0  0  0  0  0  0  0  0  0
   -8.3150  -54.9030    3.5340 C   0  0  0  0  0  0  0  0  0  0  0  0
   -8.7970  -54.5150    2.4870 O   0  0  0  0  0  0  0  0  0  0  0  0
   -5.7760  -54.9980    3.6990 C   0  0  0  0  0  0  0  0  0  0  0  0
   -5.5510  -53.9420    2.6390 C   0  0  0  0  0  0  0  0  0  0  0  0
   -4.9150  -54.2550    1.4430 C   0  0  0  0  0  0  0  0  0  0  0  0
   -5.9230  -52.6190    2.8520 C   0  0  0  0  0  0  0  0  0  0  0  0
   -4.6540  -53.2890    0.4890 C   0  0  0  0  0  0  0  0  0  0  0  0
   -5.7070  -51.6460    1.8820 C   0  0  0  0  0  0  0  0  0  0  0  0
   -5.0660  -51.9860    0.7010 C   0  0  0  0  0  0  0  0  0  0  0  0
   -4.8060  -51.0460   -0.2620 O   0  0  0  0  0  0  0  0  0  0  0  0
   -9.7340  -54.2500   -0.1320 N   0  0  0  0  0  0  0  0  0  0  0  0
   -8.8710  -54.0160   -1.2580 C   0  0  2  0  0  0  0  0  0  0  0  0
   -7.9390  -55.2150   -1.3830 C   0  0  0  0  0  0  0  0  0  0  0  0
   -7.3780  -55.7040   -0.4020 O   0  0  0  0  0  0  0  0  0  0  0  0
   -8.0860  -52.7030   -1.0950 C   0  0  0  0  0  0  0  0  0  0  0  0
   -6.9860  -52.5050   -2.1470 C   0  0  0  0  0  0  0  0  0  0  0  0
   -7.5030  -52.2410   -3.5400 C   0  0  0  0  0  0  0  0  0  0  0  0
   -8.3440  -51.3570   -3.7540 O   0  0  0  0  0  0  0  0  0  0  0  0
   -6.9960  -52.9940   -4.5140 N   0  0  0  0  0  0  0  0  0  0  0  0
   -7.8130  -55.7110   -2.5950 N   0  0  0  0  0  0  0  0  0  0  0  0
   -6.9090  -56.7860   -2.8990 C   0  0  2  0  0  0  0  0  0  0  0  0
   -5.4950  -56.1990   -2.9970 C   0  0  0  0  0  0  0  0  0  0  0  0
   -5.2900  -55.1410   -3.5970 O   0  0  0  0  0  0  0  0  0  0  0  0
   -7.3130  -57.4360   -4.2140 C   0  0  0  0  0  0  0  0  0  0  0  0
   -6.3780  -58.4520   -4.5080 O   0  0  0  0  0  0  0  0  0  0  0  0
   -4.5320  -56.8670   -2.3760 N   0  0  0  0  0  0  0  0  0  0  0  0
   -3.1450  -56.4280   -2.3970 C   0  0  2  0  0  0  0  0  0  0  0  0
   -2.5230  -56.5370   -3.7830 C   0  0  0  0  0  0  0  0  0  0  0  0
   -1.7060  -55.6880   -4.1400 O   0  0  0  0  0  0  0  0  0  0  0  0
   -2.3140  -57.2600   -1.4300 C   0  0  0  0  0  0  0  0  0  0  0  0
   -2.2800  -56.7380   -0.0100 C   0  0  0  0  0  0  0  0  0  0  0  0
   -1.6520  -55.5360    0.2950 C   0  0  0  0  0  0  0  0  0  0  0  0
   -2.7270  -57.5200    1.0450 C   0  0  0  0  0  0  0  0  0  0  0  0
   -1.5640  -55.0810    1.6040 C   0  0  0  0  0  0  0  0  0  0  0  0
   -2.6070  -57.0920    2.3620 C   0  0  0  0  0  0  0  0  0  0  0  0
   -2.0170  -55.8750    2.6400 C   0  0  0  0  0  0  0  0  0  0  0  0
   -1.9330  -55.4540    3.9420 O   0  0  0  0  0  0  0  0  0  0  0  0
   -2.8980  -57.5830   -4.5260 N   0  0  0  0  0  0  0  0  0  0  0  0
   -2.4280  -57.8530   -5.8810 C   0  0  0  0  0  0  0  0  0  0  0  0
   -0.9290  -58.0280   -5.9870 C   0  0  0  0  0  0  0  0  0  0  0  0
   -0.3050  -57.5020   -6.9140 O   0  0  0  0  0  0  0  0  0  0  0  0
   -0.3420  -58.7540   -5.0300 N   0  0  0  0  0  0  0  0  0  0  0  0
    1.0970  -58.9860   -4.9540 C   0  0  2  0  0  0  0  0  0  0  0  0
    1.7420  -59.5220   -6.2520 C   0  0  0  0  0  0  0  0  0  0  0  0
    1.4090  -60.6110   -6.7180 O   0  0  0  0  0  0  0  0  0  0  0  0
    1.4350  -59.9060   -3.7710 C   0  0  0  0  0  0  0  0  0  0  0  0
    1.1460  -59.3500   -2.3930 C   0  0  0  0  0  0  0  0  0  0  0  0
    1.7430  -58.1710   -1.9610 C   0  0  0  0  0  0  0  0  0  0  0  0
    0.3230  -60.0340   -1.5080 C   0  0  0  0  0  0  0  0  0  0  0  0
    1.5000  -57.6750   -0.6820 C   0  0  0  0  0  0  0  0  0  0  0  0
    0.0850  -59.5380   -0.2280 C   0  0  0  0  0  0  0  0  0  0  0  0
    0.6920  -58.3740    0.1850 C   0  0  0  0  0  0  0  0  0  0  0  0
    2.6550  -58.7420   -6.8300 N   0  0  0  0  0  0  0  0  0  0  0  0
    3.4010  -59.1250   -8.0310 C   0  0  2  0  0  0  0  0  0  0  0  0
    4.8590  -59.2960   -7.6290 C   0  0  0  0  0  0  0  0  0  0  0  0
    5.3400  -58.5630   -6.7620 O   0  0  0  0  0  0  0  0  0  0  0  0
    3.3090  -58.0330   -9.1110 C   0  0  0  0  0  0  0  0  0  0  0  0
    1.9040  -57.7150   -9.5720 C   0  0  0  0  0  0  0  0  0  0  0  0
    1.9190  -56.6030  -10.5870 C   0  0  0  0  0  0  0  0  0  0  0  0
    1.2900  -55.5550  -10.4030 O   0  0  0  0  0  0  0  0  0  0  0  0
    2.6470  -56.7990  -11.6810 N   0  0  0  0  0  0  0  0  0  0  0  0
    7.5030  -58.3560   -9.0850 N   0  0  0  0  0  0  0  0  0  0  0  0
    8.2160  -57.1500   -9.5190 C   0  0  2  0  0  0  0  0  0  0  0  0
    8.0030  -55.9160   -8.5990 C   0  0  0  0  0  0  0  0  0  0  0  0
    8.5530  -54.8420   -8.8770 O   0  0  0  0  0  0  0  0  0  0  0  0
    7.8550  -56.8380  -10.9810 C   0  0  2  0  0  0  0  0  0  0  0  0
    6.4870  -56.4120  -11.0710 O   0  0  0  0  0  0  0  0  0  0  0  0
    8.0960  -58.0250  -11.9000 C   0  0  0  0  0  0  0  0  0  0  0  0
    7.2140  -56.0720   -7.5100 N   0  0  0  0  0  0  0  0  0  0  0  0
    6.9710  -55.0150   -6.5260 C   0  0  2  0  0  0  0  0  0  0  0  0
    8.2550  -54.6950   -5.7900 C   0  0  0  0  0  0  0  0  0  0  0  0
    9.0710  -55.5940   -5.5650 O   0  0  0  0  0  0  0  0  0  0  0  0
    5.9910  -55.5100   -5.4480 C   0  0  0  0  0  0  0  0  0  0  0  0
    4.5230  -55.4800   -5.7740 C   0  0  0  0  0  0  0  0  0  0  0  0
    3.6860  -55.6610   -4.8930 O   0  0  0  0  0  0  0  0  0  0  0  0
    4.1630  -55.2800   -7.0280 N   0  0  0  0  0  0  0  0  0  0  0  0
    8.3760  -53.4510   -5.3060 N   0  0  0  0  0  0  0  0  0  0  0  0
    9.4770  -53.0420   -4.4360 C   0  0  0  0  0  0  0  0  0  0  0  0
    9.4440  -53.8810   -3.1650 C   0  0  0  0  0  0  0  0  0  0  0  0
    8.3690  -54.3570   -2.7900 O   0  0  0  0  0  0  0  0  0  0  0  0
   10.6040  -54.1580   -2.5420 N   0  0  0  0  0  0  0  0  0  0  0  0
   10.6740  -55.0830   -1.3960 C   0  0  2  0  0  0  0  0  0  0  0  0
    9.6610  -54.7480   -0.2510 C   0  0  0  0  0  0  0  0  0  0  0  0
    9.0330  -55.6670    0.2860 O   0  0  0  0  0  0  0  0  0  0  0  0
   12.1210  -55.2710   -0.8710 C   0  0  0  0  0  0  0  0  0  0  0  0
   12.6360  -54.0120   -0.1770 C   0  0  0  0  0  0  0  0  0  0  0  0
   12.2250  -56.4810    0.0520 C   0  0  0  0  0  0  0  0  0  0  0  0
    9.4490  -53.4650    0.0450 N   0  0  0  0  0  0  0  0  0  0  0  0
    8.4890  -53.0520    1.0660 C   0  0  0  0  0  0  0  0  0  0  0  0
    7.0290  -53.2560    0.6840 C   0  0  0  0  0  0  0  0  0  0  0  0
    6.1310  -53.1420    1.5170 O   0  0  0  0  0  0  0  0  0  0  0  0
    6.7700  -53.5350   -0.5880 N   0  0  0  0  0  0  0  0  0  0  0  0
    5.4140  -53.7730   -1.1200 C   0  0  2  0  0  0  0  0  0  0  0  0
    5.1820  -55.2700   -1.4440 C   0  0  0  0  0  0  0  0  0  0  0  0
    4.1210  -55.6430   -1.9400 O   0  0  0  0  0  0  0  0  0  0  0  0
    5.0810  -52.8300   -2.3210 C   0  0  0  0  0  0  0  0  0  0  0  0
    5.8050  -51.5040   -2.2150 C   0  0  0  0  0  0  0  0  0  0  0  0
    6.6580  -51.0730   -3.2230 C   0  0  0  0  0  0  0  0  0  0  0  0
    5.7890  -50.7780   -1.0280 C   0  0  0  0  0  0  0  0  0  0  0  0
    7.4020  -49.9030   -3.0880 C   0  0  0  0  0  0  0  0  0  0  0  0
    6.5770  -49.6490   -0.8570 C   0  0  0  0  0  0  0  0  0  0  0  0
    7.3640  -49.2000   -1.8950 C   0  0  0  0  0  0  0  0  0  0  0  0
    8.0980  -48.0610   -1.7040 O   0  0  0  0  0  0  0  0  0  0  0  0
  2  1  1  1
  3  2  1  0
  4  3  2  0
  5  2  1  0
  6  5  1  0
  7  6  1  0
  8  7  1  0
  9  8  1  0
 10  9  1  0
 11  9  2  0
 13 12  1  6
 14 13  1  0
 15 14  2  0
 16 13  1  0
 17 16  1  0
 18 17  2  0
 19 17  1  0
 20 18  1  0
 21 19  2  0
 22 21  1  0
 22 20  2  0
 23 22  1  0
 25 24  1  1
 26 25  1  0
 27 26  2  0
 28 25  1  0
 29 28  1  0
 30 29  1  0
 31 30  2  0
 32 30  1  0
 33 26  1  0
 34 33  1  0
 35 34  1  0
 36 35  2  0
 34 37  1  6
 38 37  1  0
 39 35  1  0
 40 39  1  0
 41 40  1  0
 42 41  2  0
 40 43  1  1
 44 43  1  0
 45 44  2  0
 46 44  1  0
 47 45  1  0
 48 46  2  0
 49 48  1  0
 49 47  2  0
 50 49  1  0
 51 41  1  0
 52 51  1  0
 53 52  1  0
 54 53  2  0
 55 53  1  0
 56 55  1  0
 57 56  1  0
 58 57  2  0
 56 59  1  1
 60 59  1  0
 61 60  2  0
 62 60  1  0
 63 61  1  0
 64 62  2  0
 65 64  1  0
 65 63  2  0
 66 57  1  0
 67 66  1  0
 68 67  1  0
 69 68  2  0
 67 70  1  6
 71 70  1  0
 72 71  1  0
 73 72  2  0
 74 72  1  0
 76 75  1  1
 77 76  1  0
 78 77  2  0
 79 76  1  0
 80 79  1  0
 79 81  1  6
 82 77  1  0
 83 82  1  0
 84 83  1  0
 85 84  2  0
 83 86  1  1
 87 86  1  0
 88 87  2  0
 89 87  1  0
 90 84  1  0
 91 90  1  0
 92 91  1  0
 93 92  2  0
 94 92  1  0
 95 94  1  6
 96 95  1  0
 97 96  2  0
 98 95  1  0
 99 98  1  0
100 98  1  0
101 96  1  0
102101  1  0
103102  1  0
104103  2  0
105103  1  0
106105  1  0
107106  1  0
108107  2  0
106109  1  6
110109  1  0
111110  2  0
112110  1  0
113111  1  0
114112  2  0
115114  1  0
115113  2  0
116115  1  0
M  END
$$$$
