
     RDKit          3D

 93 92  0  0  0  0  0  0  0  0999 V2000
    4.7550  -11.7610   18.1170 N   0  0  0  0  0  0  0  0  0  0  0  0
    5.3300  -13.0750   18.3400 C   0  0  2  0  0  0  0  0  0  0  0  0
    6.7270  -13.2260   17.7230 C   0  0  0  0  0  0  0  0  0  0  0  0
    7.3580  -14.2620   17.9380 O   0  0  0  0  0  0  0  0  0  0  0  0
    4.3210  -14.1870   18.0340 C   0  0  0  0  0  0  0  0  0  0  0  0
    3.4160  -14.5380   19.2130 C   0  0  0  0  0  0  0  0  0  0  0  0
    3.6790  -14.0590   20.3500 O   0  0  0  0  0  0  0  0  0  0  0  0
    2.4600  -15.3090   19.0010 O   0  0  0  0  0  0  0  0  0  0  0  0
    7.9090   -8.1430    5.3050 N   0  0  0  0  0  0  0  0  0  0  0  0
    9.0650   -8.9420    5.6940 C   0  0  2  0  0  0  0  0  0  0  0  0
    9.4390   -9.9070    4.5660 C   0  0  0  0  0  0  0  0  0  0  0  0
    8.5870  -10.2810    3.7540 O   0  0  0  0  0  0  0  0  0  0  0  0
    8.7770   -9.7460    6.9680 C   0  0  0  0  0  0  0  0  0  0  0  0
    7.6510  -10.7390    6.8150 C   0  0  0  0  0  0  0  0  0  0  0  0
    6.3280  -10.3110    6.8530 C   0  0  0  0  0  0  0  0  0  0  0  0
    7.8960  -12.0820    6.5590 C   0  0  0  0  0  0  0  0  0  0  0  0
    5.2730  -11.1880    6.6570 C   0  0  0  0  0  0  0  0  0  0  0  0
    6.8500  -12.9780    6.3780 C   0  0  0  0  0  0  0  0  0  0  0  0
    5.5380  -12.5290    6.4270 C   0  0  0  0  0  0  0  0  0  0  0  0
    4.4990  -13.3980    6.2540 O   0  0  0  0  0  0  0  0  0  0  0  0
    6.4790  -10.4930    1.8100 N   0  0  0  0  0  0  0  0  0  0  0  0
    5.0810  -10.6330    2.1860 C   0  0  2  0  0  0  0  0  0  0  0  0
    4.6980   -9.4730    3.1040 C   0  0  0  0  0  0  0  0  0  0  0  0
    5.5570   -8.9460    3.8140 O   0  0  0  0  0  0  0  0  0  0  0  0
    4.8750  -11.9950    2.8510 C   0  0  0  0  0  0  0  0  0  0  0  0
    4.6520  -13.1260    1.8600 C   0  0  0  0  0  0  0  0  0  0  0  0
    3.1830  -13.2810    1.5450 C   0  0  0  0  0  0  0  0  0  0  0  0
    2.3260  -13.2150    2.4300 O   0  0  0  0  0  0  0  0  0  0  0  0
    2.8810  -13.4750    0.2720 N   0  0  0  0  0  0  0  0  0  0  0  0
    3.4150   -9.0760    3.0520 N   0  0  0  0  0  0  0  0  0  0  0  0
    2.8530   -8.0220    3.8850 C   0  0  2  0  0  0  0  0  0  0  0  0
    2.4170   -8.5950    5.2330 C   0  0  0  0  0  0  0  0  0  0  0  0
    1.8110   -9.6660    5.2880 O   0  0  0  0  0  0  0  0  0  0  0  0
    1.6700   -7.3760    3.2080 C   0  0  0  0  0  0  0  0  0  0  0  0
    2.0830   -6.3580    2.3140 O   0  0  0  0  0  0  0  0  0  0  0  0
    2.6930   -7.8620    6.3240 N   0  0  0  0  0  0  0  0  0  0  0  0
    1.9110   -8.1150    7.5180 C   0  0  2  0  0  0  0  0  0  0  0  0
    0.5450   -7.4780    7.2940 C   0  0  0  0  0  0  0  0  0  0  0  0
    0.4350   -6.5230    6.5210 O   0  0  0  0  0  0  0  0  0  0  0  0
    2.5210   -7.3970    8.7270 C   0  0  0  0  0  0  0  0  0  0  0  0
    3.8520   -7.9200    9.2050 C   0  0  0  0  0  0  0  0  0  0  0  0
    3.9590   -9.1440    9.8600 C   0  0  0  0  0  0  0  0  0  0  0  0
    5.0000   -7.1620    9.0560 C   0  0  0  0  0  0  0  0  0  0  0  0
    5.1760   -9.6110   10.3440 C   0  0  0  0  0  0  0  0  0  0  0  0
    6.2250   -7.6150    9.5250 C   0  0  0  0  0  0  0  0  0  0  0  0
    6.3180   -8.8450   10.1590 C   0  0  0  0  0  0  0  0  0  0  0  0
    7.5400   -9.2860   10.5860 O   0  0  0  0  0  0  0  0  0  0  0  0
   -0.4830   -7.9890    7.9770 N   0  0  0  0  0  0  0  0  0  0  0  0
   -1.8010   -7.3850    7.8640 C   0  0  0  0  0  0  0  0  0  0  0  0
   -2.2720   -6.8720    9.2200 C   0  0  0  0  0  0  0  0  0  0  0  0
   -2.9350   -7.6120    9.9310 O   0  0  0  0  0  0  0  0  0  0  0  0
   -7.7510   -5.0600   15.9880 N   0  0  0  0  0  0  0  0  0  0  0  0
   -8.4130   -6.1320   16.7240 C   0  0  2  0  0  0  0  0  0  0  0  0
   -7.7140   -7.4780   16.5240 C   0  0  0  0  0  0  0  0  0  0  0  0
   -8.2330   -8.5060   16.9610 O   0  0  0  0  0  0  0  0  0  0  0  0
   -9.9170   -6.1950   16.4110 C   0  0  2  0  0  0  0  0  0  0  0  0
  -10.1190   -6.3630   15.0050 O   0  0  0  0  0  0  0  0  0  0  0  0
  -10.6950   -4.9990   16.9180 C   0  0  0  0  0  0  0  0  0  0  0  0
   -6.5380   -7.4710   15.8680 N   0  0  0  0  0  0  0  0  0  0  0  0
   -5.6720   -8.6400   15.8170 C   0  0  2  0  0  0  0  0  0  0  0  0
   -5.3270   -9.0670   17.2430 C   0  0  0  0  0  0  0  0  0  0  0  0
   -5.2470   -8.2250   18.1400 O   0  0  0  0  0  0  0  0  0  0  0  0
   -4.3570   -8.3690   15.0710 C   0  0  0  0  0  0  0  0  0  0  0  0
   -4.4850   -8.3300   13.5590 C   0  0  0  0  0  0  0  0  0  0  0  0
   -5.5190   -8.6770   12.9970 O   0  0  0  0  0  0  0  0  0  0  0  0
   -3.4300   -7.8980   12.8930 N   0  0  0  0  0  0  0  0  0  0  0  0
   -5.1320  -10.3790   17.4300 N   0  0  0  0  0  0  0  0  0  0  0  0
   -4.4430  -10.9220   18.5890 C   0  0  0  0  0  0  0  0  0  0  0  0
   -3.0690  -10.2810   18.7630 C   0  0  0  0  0  0  0  0  0  0  0  0
   -2.4480   -9.8290   17.8150 O   0  0  0  0  0  0  0  0  0  0  0  0
   -2.5770  -10.2310   19.9990 N   0  0  0  0  0  0  0  0  0  0  0  0
   -1.3460   -9.4920   20.2550 C   0  0  2  0  0  0  0  0  0  0  0  0
   -0.1430  -10.0690   19.5080 C   0  0  0  0  0  0  0  0  0  0  0  0
    0.7920   -9.3280   19.2210 O   0  0  0  0  0  0  0  0  0  0  0  0
   -1.0570   -9.3990   21.7640 C   0  0  0  0  0  0  0  0  0  0  0  0
   -1.9930   -8.3880   22.3910 C   0  0  0  0  0  0  0  0  0  0  0  0
   -1.2000  -10.7570   22.4300 C   0  0  0  0  0  0  0  0  0  0  0  0
   -0.1600  -11.3840   19.2450 N   0  0  0  0  0  0  0  0  0  0  0  0
    0.8740  -12.0640   18.4770 C   0  0  0  0  0  0  0  0  0  0  0  0
    0.9640  -11.5220   17.0490 C   0  0  0  0  0  0  0  0  0  0  0  0
    2.0430  -11.5660   16.4550 O   0  0  0  0  0  0  0  0  0  0  0  0
   -0.1610  -10.9870   16.5410 N   0  0  0  0  0  0  0  0  0  0  0  0
   -0.2580  -10.4290   15.1910 C   0  0  2  0  0  0  0  0  0  0  0  0
   -0.2940   -8.8980   15.1810 C   0  0  0  0  0  0  0  0  0  0  0  0
   -0.5080   -8.2750   14.1420 O   0  0  0  0  0  0  0  0  0  0  0  0
   -1.4200  -11.0580   14.4040 C   0  0  0  0  0  0  0  0  0  0  0  0
   -1.0820  -12.4050   13.8170 C   0  0  0  0  0  0  0  0  0  0  0  0
   -1.4500  -13.5820   14.4550 C   0  0  0  0  0  0  0  0  0  0  0  0
   -0.3580  -12.5100   12.6320 C   0  0  0  0  0  0  0  0  0  0  0  0
   -1.1190  -14.8230   13.9370 C   0  0  0  0  0  0  0  0  0  0  0  0
   -0.0140  -13.7450   12.1010 C   0  0  0  0  0  0  0  0  0  0  0  0
   -0.3940  -14.9040   12.7570 C   0  0  0  0  0  0  0  0  0  0  0  0
   -0.0530  -16.1300   12.2800 O   0  0  0  0  0  0  0  0  0  0  0  0
  2  1  1  6
  3  2  1  0
  4  3  2  0
  5  2  1  0
  6  5  1  0
  7  6  2  0
  8  6  1  0
 10  9  1  6
 11 10  1  0
 12 11  2  0
 13 10  1  0
 14 13  1  0
 15 14  2  0
 16 14  1  0
 17 15  1  0
 18 16  2  0
 19 17  2  0
 19 18  1  0
 20 19  1  0
 22 21  1  1
 23 22  1  0
 24 23  2  0
 25 22  1  0
 26 25  1  0
 27 26  1  0
 28 27  2  0
 29 27  1  0
 30 23  1  0
 31 30  1  0
 32 31  1  0
 33 32  2  0
 31 34  1  6
 35 34  1  0
 36 32  1  0
 37 36  1  0
 38 37  1  0
 39 38  2  0
 37 40  1  1
 41 40  1  0
 42 41  2  0
 43 41  1  0
 44 42  1  0
 45 43  2  0
 46 44  2  0
 46 45  1  0
 47 46  1  0
 48 38  1  0
 49 48  1  0
 50 49  1  0
 51 50  2  0
 53 52  1  6
 54 53  1  0
 55 54  2  0
 56 53  1  0
 57 56  1  0
 56 58  1  6
 59 54  1  0
 60 59  1  0
 61 60  1  0
 62 61  2  0
 60 63  1  6
 64 63  1  0
 65 64  2  0
 66 64  1  0
 67 61  1  0
 68 67  1  0
 69 68  1  0
 70 69  2  0
 71 69  1  0
 72 71  1  1
 73 72  1  0
 74 73  2  0
 75 72  1  0
 76 75  1  0
 77 75  1  0
 78 73  1  0
 79 78  1  0
 80 79  1  0
 81 80  2  0
 82 80  1  0
 83 82  1  0
 84 83  1  0
 85 84  2  0
 83 86  1  1
 87 86  1  0
 88 87  2  0
 89 87  1  0
 90 88  1  0
 91 89  2  0
 92 91  1  0
 92 90  2  0
 93 92  1  0
M  END
$$$$
