
     RDKit          3D

109109  0  0  0  0  0  0  0  0999 V2000
  -21.9430   22.2560    3.9710 N   0  0  0  0  0  0  0  0  0  0  0  0
  -21.9710   20.8200    4.2210 C   0  0  0  0  0  0  0  0  0  0  0  0
  -23.0910   20.1190    3.4560 C   0  0  0  0  0  0  0  0  0  0  0  0
  -24.2370   20.5650    3.4890 O   0  0  0  0  0  0  0  0  0  0  0  0
  -23.7860    7.3360    6.2030 N   0  0  0  0  0  0  0  0  0  0  0  0
  -23.2810    6.0040    6.5020 C   0  0  2  0  0  0  0  0  0  0  0  0
  -23.9490    5.5240    7.7870 C   0  0  0  0  0  0  0  0  0  0  0  0
  -24.3380    6.3380    8.6290 O   0  0  0  0  0  0  0  0  0  0  0  0
  -21.7520    6.0300    6.6600 C   0  0  0  0  0  0  0  0  0  0  0  0
  -21.2520    6.9010    7.7950 C   0  0  0  0  0  0  0  0  0  0  0  0
  -21.0630    8.2660    7.6200 C   0  0  0  0  0  0  0  0  0  0  0  0
  -20.9550    6.3600    9.0450 C   0  0  0  0  0  0  0  0  0  0  0  0
  -20.6260    9.0780    8.6600 C   0  0  0  0  0  0  0  0  0  0  0  0
  -20.5040    7.1500   10.0940 C   0  0  0  0  0  0  0  0  0  0  0  0
  -20.3550    8.5140    9.9000 C   0  0  0  0  0  0  0  0  0  0  0  0
  -19.9280    9.3030   10.9210 O   0  0  0  0  0  0  0  0  0  0  0  0
  -25.5570    8.4980   10.0820 N   0  0  0  0  0  0  0  0  0  0  0  0
  -24.9210    9.7780   10.3420 C   0  0  2  0  0  0  0  0  0  0  0  0
  -24.5520   10.3810    8.9920 C   0  0  0  0  0  0  0  0  0  0  0  0
  -24.2410    9.6410    8.0600 O   0  0  0  0  0  0  0  0  0  0  0  0
  -23.6180    9.5320   11.0980 C   0  0  0  0  0  0  0  0  0  0  0  0
  -23.6490    9.9790   12.5470 C   0  0  0  0  0  0  0  0  0  0  0  0
  -23.6550   11.4770   12.7110 C   0  0  0  0  0  0  0  0  0  0  0  0
  -23.0700   12.2120   11.9210 O   0  0  0  0  0  0  0  0  0  0  0  0
  -24.3440   11.9380   13.7390 N   0  0  0  0  0  0  0  0  0  0  0  0
  -24.5930   11.7170    8.8940 N   0  0  0  0  0  0  0  0  0  0  0  0
  -24.1670   12.4020    7.6840 C   0  0  2  0  0  0  0  0  0  0  0  0
  -22.6630   12.6610    7.7340 C   0  0  0  0  0  0  0  0  0  0  0  0
  -22.1110   12.9980    8.7800 O   0  0  0  0  0  0  0  0  0  0  0  0
  -24.9190   13.6930    7.4630 C   0  0  0  0  0  0  0  0  0  0  0  0
  -24.4550   14.2940    6.2580 O   0  0  0  0  0  0  0  0  0  0  0  0
  -22.0130   12.5190    6.5760 N   0  0  0  0  0  0  0  0  0  0  0  0
  -20.6120   12.8980    6.4480 C   0  0  2  0  0  0  0  0  0  0  0  0
  -20.4260   14.4150    6.5730 C   0  0  0  0  0  0  0  0  0  0  0  0
  -19.4170   14.8770    7.1040 O   0  0  0  0  0  0  0  0  0  0  0  0
  -20.1260   12.4720    5.0660 C   0  0  0  0  0  0  0  0  0  0  0  0
  -19.7640   11.0180    4.9360 C   0  0  0  0  0  0  0  0  0  0  0  0
  -18.6060   10.5370    5.5350 C   0  0  0  0  0  0  0  0  0  0  0  0
  -20.5400   10.1520    4.1700 C   0  0  0  0  0  0  0  0  0  0  0  0
  -18.2300    9.2130    5.3830 C   0  0  0  0  0  0  0  0  0  0  0  0
  -20.1690    8.8240    4.0020 C   0  0  0  0  0  0  0  0  0  0  0  0
  -19.0120    8.3590    4.6140 C   0  0  0  0  0  0  0  0  0  0  0  0
  -18.6350    7.0520    4.4980 O   0  0  0  0  0  0  0  0  0  0  0  0
  -21.4100   15.1740    6.0730 N   0  0  0  0  0  0  0  0  0  0  0  0
  -21.3800   16.6310    6.0840 C   0  0  0  0  0  0  0  0  0  0  0  0
  -20.2370   17.1860    5.2300 C   0  0  0  0  0  0  0  0  0  0  0  0
  -19.5220   18.0710    5.6790 O   0  0  0  0  0  0  0  0  0  0  0  0
  -20.0780   16.6600    4.0080 N   0  0  0  0  0  0  0  0  0  0  0  0
  -18.9450   16.9870    3.1510 C   0  0  2  0  0  0  0  0  0  0  0  0
  -18.9330   18.4850    2.8190 C   0  0  0  0  0  0  0  0  0  0  0  0
  -19.8960   19.0010    2.2690 O   0  0  0  0  0  0  0  0  0  0  0  0
  -19.0310   16.2130    1.8350 C   0  0  0  0  0  0  0  0  0  0  0  0
  -18.7880   14.7270    1.9440 C   0  0  0  0  0  0  0  0  0  0  0  0
  -17.5900   14.2360    2.4450 C   0  0  0  0  0  0  0  0  0  0  0  0
  -19.7560   13.8200    1.5430 C   0  0  0  0  0  0  0  0  0  0  0  0
  -17.3700   12.8680    2.5390 C   0  0  0  0  0  0  0  0  0  0  0  0
  -19.5300   12.4520    1.6240 C   0  0  0  0  0  0  0  0  0  0  0  0
  -18.3260   11.9760    2.1110 C   0  0  0  0  0  0  0  0  0  0  0  0
  -17.8240   19.1630    3.1470 N   0  0  0  0  0  0  0  0  0  0  0  0
  -17.6080   20.5640    2.8080 C   0  0  2  0  0  0  0  0  0  0  0  0
  -16.3980   20.6320    1.8750 C   0  0  0  0  0  0  0  0  0  0  0  0
  -15.4680   19.8230    2.0180 O   0  0  0  0  0  0  0  0  0  0  0  0
  -17.3830   21.4240    4.0600 C   0  0  0  0  0  0  0  0  0  0  0  0
  -18.6100   21.6000    4.9530 C   0  0  0  0  0  0  0  0  0  0  0  0
  -18.3290   22.4180    6.1980 C   0  0  0  0  0  0  0  0  0  0  0  0
  -17.5210   23.3410    6.1970 O   0  0  0  0  0  0  0  0  0  0  0  0
  -18.9970   22.0930    7.2920 N   0  0  0  0  0  0  0  0  0  0  0  0
  -13.8790   22.4310    1.6920 N   0  0  0  0  0  0  0  0  0  0  0  0
  -12.6560   22.7890    2.4030 C   0  0  2  0  0  0  0  0  0  0  0  0
  -12.1050   21.6130    3.2200 C   0  0  0  0  0  0  0  0  0  0  0  0
  -11.0500   21.7360    3.8380 O   0  0  0  0  0  0  0  0  0  0  0  0
  -12.9040   24.0070    3.3120 C   0  0  2  0  0  0  0  0  0  0  0  0
  -13.9200   23.6710    4.2620 O   0  0  0  0  0  0  0  0  0  0  0  0
  -13.3450   25.2420    2.5530 C   0  0  0  0  0  0  0  0  0  0  0  0
  -12.8080   20.4700    3.2430 N   0  0  0  0  0  0  0  0  0  0  0  0
  -12.3330   19.3120    3.9920 C   0  0  2  0  0  0  0  0  0  0  0  0
  -10.9460   18.9050    3.5120 C   0  0  0  0  0  0  0  0  0  0  0  0
  -10.6530   18.9990    2.3220 O   0  0  0  0  0  0  0  0  0  0  0  0
  -13.2380   18.0970    3.7840 C   0  0  0  0  0  0  0  0  0  0  0  0
  -14.4890   18.1460    4.6330 C   0  0  0  0  0  0  0  0  0  0  0  0
  -14.7050   19.1000    5.3850 O   0  0  0  0  0  0  0  0  0  0  0  0
  -15.2920   17.1010    4.5390 N   0  0  0  0  0  0  0  0  0  0  0  0
  -10.1210   18.3970    4.4370 N   0  0  0  0  0  0  0  0  0  0  0  0
   -8.8910   17.7090    4.0780 C   0  0  0  0  0  0  0  0  0  0  0  0
   -9.2080   16.5630    3.1100 C   0  0  0  0  0  0  0  0  0  0  0  0
  -10.3020   16.0040    3.1570 O   0  0  0  0  0  0  0  0  0  0  0  0
   -8.2680   16.2260    2.2200 N   0  0  0  0  0  0  0  0  0  0  0  0
   -8.5380   15.2690    1.1480 C   0  0  2  0  0  0  0  0  0  0  0  0
   -9.0400   13.9280    1.6990 C   0  0  0  0  0  0  0  0  0  0  0  0
   -9.9180   13.3180    1.0980 O   0  0  0  0  0  0  0  0  0  0  0  0
   -7.3400   15.1260    0.1800 C   0  0  0  0  0  0  0  0  0  0  0  0
   -6.0800   14.6040    0.8550 C   0  0  0  0  0  0  0  0  0  0  0  0
   -7.6760   14.2900   -1.0520 C   0  0  0  0  0  0  0  0  0  0  0  0
   -8.5080   13.4770    2.8440 N   0  0  0  0  0  0  0  0  0  0  0  0
   -8.8980   12.2010    3.4410 C   0  0  0  0  0  0  0  0  0  0  0  0
  -10.3560   12.2150    3.9090 C   0  0  0  0  0  0  0  0  0  0  0  0
  -10.9330   11.1600    4.1550 O   0  0  0  0  0  0  0  0  0  0  0  0
  -10.9490   13.4130    3.9880 N   0  0  0  0  0  0  0  0  0  0  0  0
  -12.3150   13.5830    4.4900 C   0  0  2  0  0  0  0  0  0  0  0  0
  -13.2470   14.0500    3.3720 C   0  0  0  0  0  0  0  0  0  0  0  0
  -14.4130   14.3440    3.6080 O   0  0  0  0  0  0  0  0  0  0  0  0
  -12.3420   14.5220    5.7010 C   0  0  0  0  0  0  0  0  0  0  0  0
  -11.3610   14.1920    6.8040 C   0  0  0  0  0  0  0  0  0  0  0  0
  -10.6680   15.2050    7.4580 C   0  0  0  0  0  0  0  0  0  0  0  0
  -11.0820   12.8800    7.1750 C   0  0  0  0  0  0  0  0  0  0  0  0
   -9.7640   14.9240    8.4730 C   0  0  0  0  0  0  0  0  0  0  0  0
  -10.1490   12.5800    8.1630 C   0  0  0  0  0  0  0  0  0  0  0  0
   -9.4980   13.6080    8.8250 C   0  0  0  0  0  0  0  0  0  0  0  0
   -8.5960   13.3090    9.8080 O   0  0  0  0  0  0  0  0  0  0  0  0
  2  1  1  0
  3  2  1  0
  4  3  2  0
  6  5  1  1
  7  6  1  0
  8  7  2  0
  9  6  1  0
 10  9  1  0
 11 10  2  0
 12 10  1  0
 13 11  1  0
 14 12  2  0
 15 14  1  0
 15 13  2  0
 16 15  1  0
 18 17  1  6
 19 18  1  0
 20 19  2  0
 21 18  1  0
 22 21  1  0
 23 22  1  0
 24 23  2  0
 25 23  1  0
 26 19  1  0
 27 26  1  0
 28 27  1  0
 29 28  2  0
 27 30  1  1
 31 30  1  0
 32 28  1  0
 33 32  1  0
 34 33  1  0
 35 34  2  0
 33 36  1  6
 37 36  1  0
 38 37  2  0
 39 37  1  0
 40 38  1  0
 41 39  2  0
 42 41  1  0
 42 40  2  0
 43 42  1  0
 44 34  1  0
 45 44  1  0
 46 45  1  0
 47 46  2  0
 48 46  1  0
 49 48  1  0
 50 49  1  0
 51 50  2  0
 49 52  1  6
 53 52  1  0
 54 53  2  0
 55 53  1  0
 56 54  1  0
 57 55  2  0
 58 57  1  0
 58 56  2  0
 59 50  1  0
 60 59  1  0
 61 60  1  0
 62 61  2  0
 60 63  1  1
 64 63  1  0
 65 64  1  0
 66 65  2  0
 67 65  1  0
 69 68  1  1
 70 69  1  0
 71 70  2  0
 72 69  1  0
 73 72  1  0
 72 74  1  6
 75 70  1  0
 76 75  1  0
 77 76  1  0
 78 77  2  0
 76 79  1  6
 80 79  1  0
 81 80  2  0
 82 80  1  0
 83 77  1  0
 84 83  1  0
 85 84  1  0
 86 85  2  0
 87 85  1  0
 88 87  1  1
 89 88  1  0
 90 89  2  0
 91 88  1  0
 92 91  1  0
 93 91  1  0
 94 89  1  0
 95 94  1  0
 96 95  1  0
 97 96  2  0
 98 96  1  0
 99 98  1  0
100 99  1  0
101100  2  0
 99102  1  1
103102  1  0
104103  2  0
105103  1  0
106104  1  0
107105  2  0
108107  1  0
108106  2  0
109108  1  0
M  END
$$$$
