
     RDKit          3D

148149  0  0  0  0  0  0  0  0999 V2000
  -53.2780  -44.4180   85.9410 N   0  0  0  0  0  0  0  0  0  0  0  0
  -54.6940  -44.6770   85.9120 C   0  0  0  0  0  0  0  0  0  0  0  0
  -55.4240  -43.9150   84.8220 C   0  0  0  0  0  0  0  0  0  0  0  0
  -56.4540  -44.3890   84.3290 O   0  0  0  0  0  0  0  0  0  0  0  0
  -54.9110  -42.7500   84.4350 N   0  0  0  0  0  0  0  0  0  0  0  0
  -55.4780  -42.0020   83.3170 C   0  0  0  0  0  0  0  0  0  0  0  0
  -55.8780  -40.5870   83.7040 C   0  0  0  0  0  0  0  0  0  0  0  0
  -56.4900  -40.3440   84.7420 O   0  0  0  0  0  0  0  0  0  0  0  0
  -58.3210  -37.8880   82.5250 N   0  0  0  0  0  0  0  0  0  0  0  0
  -59.5340  -37.7860   81.7240 C   0  0  2  0  0  0  0  0  0  0  0  0
  -60.0610  -36.3570   81.6410 C   0  0  0  0  0  0  0  0  0  0  0  0
  -61.2250  -36.1490   81.2870 O   0  0  0  0  0  0  0  0  0  0  0  0
  -60.6070  -38.7200   82.2820 C   0  0  0  0  0  0  0  0  0  0  0  0
  -60.1640  -40.1630   82.3480 C   0  0  0  0  0  0  0  0  0  0  0  0
  -60.1930  -40.9700   81.2190 C   0  0  0  0  0  0  0  0  0  0  0  0
  -59.7030  -40.7150   83.5370 C   0  0  0  0  0  0  0  0  0  0  0  0
  -59.7830  -42.2890   81.2720 C   0  0  0  0  0  0  0  0  0  0  0  0
  -59.2900  -42.0330   83.6000 C   0  0  0  0  0  0  0  0  0  0  0  0
  -59.3330  -42.8150   82.4640 C   0  0  0  0  0  0  0  0  0  0  0  0
  -58.9230  -44.1280   82.5210 O   0  0  0  0  0  0  0  0  0  0  0  0
  -60.2010  -33.1860   76.6950 N   0  0  0  0  0  0  0  0  0  0  0  0
  -61.2770  -33.6660   75.8450 C   0  0  2  0  0  0  0  0  0  0  0  0
  -61.0700  -33.2160   74.4050 C   0  0  0  0  0  0  0  0  0  0  0  0
  -60.3340  -32.2660   74.1220 O   0  0  0  0  0  0  0  0  0  0  0  0
  -62.6420  -33.1710   76.3450 C   0  0  0  0  0  0  0  0  0  0  0  0
  -62.9390  -33.3630   77.8330 C   0  0  0  0  0  0  0  0  0  0  0  0
  -64.2670  -32.7210   78.2020 C   0  0  0  0  0  0  0  0  0  0  0  0
  -62.9380  -34.8410   78.1890 C   0  0  0  0  0  0  0  0  0  0  0  0
  -79.4100  -38.9900   75.0410 N   0  0  0  0  0  0  0  0  0  0  0  0
  -78.6030  -40.0780   74.5080 C   0  0  2  0  0  0  0  0  0  0  0  0
  -79.4540  -41.3200   74.2670 C   0  0  0  0  0  0  0  0  0  0  0  0
  -80.3160  -41.6750   75.0760 O   0  0  0  0  0  0  0  0  0  0  0  0
  -77.4560  -40.4080   75.4620 C   0  0  0  0  0  0  0  0  0  0  0  0
  -76.3340  -39.3830   75.4680 C   0  0  0  0  0  0  0  0  0  0  0  0
  -75.0160  -39.9660   75.9400 C   0  0  0  0  0  0  0  0  0  0  0  0
  -74.5810  -40.9920   75.3760 O   0  0  0  0  0  0  0  0  0  0  0  0
  -74.4150  -39.3990   76.8780 O   0  0  0  0  0  0  0  0  0  0  0  0
  -79.2080  -41.9700   73.1430 N   0  0  0  0  0  0  0  0  0  0  0  0
  -79.8410  -43.2250   72.8160 C   0  0  0  0  0  0  0  0  0  0  0  0
  -78.9580  -43.9810   71.8570 C   0  0  0  0  0  0  0  0  0  0  0  0
  -77.7770  -43.6660   71.6990 O   0  0  0  0  0  0  0  0  0  0  0  0
  -79.5340  -44.9880   71.2060 N   0  0  0  0  0  0  0  0  0  0  0  0
  -78.7770  -45.7170   70.1980 C   0  0  2  0  0  0  0  0  0  0  0  0
  -78.4260  -44.7870   69.0440 C   0  0  0  0  0  0  0  0  0  0  0  0
  -79.3110  -44.1700   68.4420 O   0  0  0  0  0  0  0  0  0  0  0  0
  -79.5590  -46.9250   69.6870 C   0  0  0  0  0  0  0  0  0  0  0  0
  -78.7860  -47.7590   68.7070 C   0  0  0  0  0  0  0  0  0  0  0  0
  -77.6870  -48.4940   69.1220 C   0  0  0  0  0  0  0  0  0  0  0  0
  -79.1370  -47.7860   67.3670 C   0  0  0  0  0  0  0  0  0  0  0  0
  -76.9630  -49.2550   68.2230 C   0  0  0  0  0  0  0  0  0  0  0  0
  -78.4160  -48.5440   66.4630 C   0  0  0  0  0  0  0  0  0  0  0  0
  -77.3280  -49.2800   66.8920 C   0  0  0  0  0  0  0  0  0  0  0  0
  -77.1290  -44.6850   68.7480 N   0  0  0  0  0  0  0  0  0  0  0  0
  -76.6180  -43.7970   67.7030 C   0  0  2  0  0  0  0  0  0  0  0  0
  -77.0060  -42.3430   67.9700 C   0  0  0  0  0  0  0  0  0  0  0  0
  -77.3190  -41.5830   67.0500 O   0  0  0  0  0  0  0  0  0  0  0  0
  -77.0810  -44.2430   66.3150 C   0  0  0  0  0  0  0  0  0  0  0  0
  -76.2390  -45.3750   65.7570 C   0  0  0  0  0  0  0  0  0  0  0  0
  -75.3050  -45.8470   66.4060 O   0  0  0  0  0  0  0  0  0  0  0  0
  -76.5620  -45.8120   64.5460 N   0  0  0  0  0  0  0  0  0  0  0  0
  -76.9920  -41.9550   69.2470 N   0  0  0  0  0  0  0  0  0  0  0  0
  -77.1770  -40.5620   69.6680 C   0  0  2  0  0  0  0  0  0  0  0  0
  -76.1440  -40.3130   70.7680 C   0  0  0  0  0  0  0  0  0  0  0  0
  -76.3920  -40.5880   71.9460 O   0  0  0  0  0  0  0  0  0  0  0  0
  -78.6020  -40.2950   70.1430 C   0  0  0  0  0  0  0  0  0  0  0  0
  -79.7960  -39.9730   68.8150 S   0  0  0  0  0  0  0  0  0  0  0  0
  -74.9900  -39.7890   70.3710 N   0  0  0  0  0  0  0  0  0  0  0  0
  -73.8080  -39.7540   71.2180 C   0  0  2  0  0  0  0  0  0  0  0  0
  -73.5820  -38.3760   71.8270 C   0  0  0  0  0  0  0  0  0  0  0  0
  -73.9470  -37.3480   71.2510 O   0  0  0  0  0  0  0  0  0  0  0  0
  -72.5610  -40.1460   70.4220 C   0  0  0  0  0  0  0  0  0  0  0  0
  -72.5030  -41.5980   70.0080 C   0  0  0  0  0  0  0  0  0  0  0  0
  -71.9430  -42.5570   70.8430 C   0  0  0  0  0  0  0  0  0  0  0  0
  -72.9920  -42.0070   68.7740 C   0  0  0  0  0  0  0  0  0  0  0  0
  -71.8790  -43.8840   70.4640 C   0  0  0  0  0  0  0  0  0  0  0  0
  -72.9340  -43.3320   68.3870 C   0  0  0  0  0  0  0  0  0  0  0  0
  -72.3760  -44.2670   69.2360 C   0  0  0  0  0  0  0  0  0  0  0  0
  -72.3120  -45.5890   68.8610 O   0  0  0  0  0  0  0  0  0  0  0  0
  -72.9640  -38.3720   73.0000 N   0  0  0  0  0  0  0  0  0  0  0  0
  -72.3430  -37.1590   73.5090 C   0  0  2  0  0  0  0  0  0  0  0  0
  -71.1830  -36.7900   72.5890 C   0  0  0  0  0  0  0  0  0  0  0  0
  -70.3930  -37.6670   72.2180 O   0  0  0  0  0  0  0  0  0  0  0  0
  -71.8510  -37.3700   74.9400 C   0  0  0  0  0  0  0  0  0  0  0  0
  -71.5480  -36.0940   75.6760 C   0  0  0  0  0  0  0  0  0  0  0  0
  -72.5720  -35.2730   76.1210 C   0  0  0  0  0  0  0  0  0  0  0  0
  -70.2380  -35.7220   75.9300 C   0  0  0  0  0  0  0  0  0  0  0  0
  -72.2950  -34.1020   76.8010 C   0  0  0  0  0  0  0  0  0  0  0  0
  -69.9540  -34.5520   76.6090 C   0  0  0  0  0  0  0  0  0  0  0  0
  -70.9840  -33.7400   77.0450 C   0  0  0  0  0  0  0  0  0  0  0  0
  -68.3640  -35.0620   72.9150 N   0  0  0  0  0  0  0  0  0  0  0  0
  -67.0040  -34.9690   73.4260 C   0  0  2  0  0  0  0  0  0  0  0  0
  -66.5400  -36.3100   73.9810 C   0  0  0  0  0  0  0  0  0  0  0  0
  -67.3330  -37.1010   74.4970 O   0  0  0  0  0  0  0  0  0  0  0  0
  -66.9020  -33.8960   74.5130 C   0  0  0  0  0  0  0  0  0  0  0  0
  -67.4110  -32.5020   74.1430 C   0  0  0  0  0  0  0  0  0  0  0  0
  -67.2500  -31.5460   75.3150 C   0  0  0  0  0  0  0  0  0  0  0  0
  -66.6860  -31.9730   72.9150 C   0  0  0  0  0  0  0  0  0  0  0  0
  -65.2360  -36.5580   73.8620 N   0  0  0  0  0  0  0  0  0  0  0  0
  -64.5960  -37.7450   74.4060 C   0  0  2  0  0  0  0  0  0  0  0  0
  -63.3130  -37.3360   75.1160 C   0  0  0  0  0  0  0  0  0  0  0  0
  -62.7560  -36.2650   74.8650 O   0  0  0  0  0  0  0  0  0  0  0  0
  -64.2780  -38.7770   73.3140 C   0  0  0  0  0  0  0  0  0  0  0  0
  -65.4620  -39.1500   72.4430 C   0  0  0  0  0  0  0  0  0  0  0  0
  -66.3880  -40.1440   73.1120 C   0  0  0  0  0  0  0  0  0  0  0  0
  -65.9860  -41.2620   73.4340 O   0  0  0  0  0  0  0  0  0  0  0  0
  -67.6350  -39.7420   73.3260 N   0  0  0  0  0  0  0  0  0  0  0  0
  -62.8420  -38.2050   76.0040 N   0  0  0  0  0  0  0  0  0  0  0  0
  -61.6300  -37.9510   76.7660 C   0  0  2  0  0  0  0  0  0  0  0  0
  -60.4570  -38.7360   76.1920 C   0  0  0  0  0  0  0  0  0  0  0  0
  -60.6320  -39.7750   75.5500 O   0  0  0  0  0  0  0  0  0  0  0  0
  -61.8220  -38.3120   78.2390 C   0  0  0  0  0  0  0  0  0  0  0  0
  -60.5950  -38.7130   78.8240 O   0  0  0  0  0  0  0  0  0  0  0  0
  -59.2490  -38.2280   76.4460 N   0  0  0  0  0  0  0  0  0  0  0  0
  -58.0440  -38.8380   75.8940 C   0  0  2  0  0  0  0  0  0  0  0  0
  -57.5440  -39.9940   76.7510 C   0  0  0  0  0  0  0  0  0  0  0  0
  -57.0420  -40.9910   76.2170 O   0  0  0  0  0  0  0  0  0  0  0  0
  -56.9480  -37.7840   75.7450 C   0  0  0  0  0  0  0  0  0  0  0  0
  -57.0060  -37.0000   74.4550 C   0  0  0  0  0  0  0  0  0  0  0  0
  -56.8420  -37.6300   73.2290 C   0  0  0  0  0  0  0  0  0  0  0  0
  -57.2200  -35.6270   74.4620 C   0  0  0  0  0  0  0  0  0  0  0  0
  -56.8890  -36.9150   72.0450 C   0  0  0  0  0  0  0  0  0  0  0  0
  -57.2700  -34.9050   73.2850 C   0  0  0  0  0  0  0  0  0  0  0  0
  -57.1030  -35.5540   72.0790 C   0  0  0  0  0  0  0  0  0  0  0  0
  -57.1510  -34.8440   70.9020 O   0  0  0  0  0  0  0  0  0  0  0  0
  -57.6590  -39.8780   78.0720 N   0  0  0  0  0  0  0  0  0  0  0  0
  -57.1740  -40.9100   78.9690 C   0  0  0  0  0  0  0  0  0  0  0  0
  -55.6700  -41.0810   78.9200 C   0  0  0  0  0  0  0  0  0  0  0  0
  -55.1690  -42.1900   78.7090 O   0  0  0  0  0  0  0  0  0  0  0  0
  -54.9380  -39.9850   79.1130 N   0  0  0  0  0  0  0  0  0  0  0  0
  -53.4840  -40.0140   79.0050 C   0  0  2  0  0  0  0  0  0  0  0  0
  -52.8810  -40.8010   80.1630 C   0  0  0  0  0  0  0  0  0  0  0  0
  -53.0880  -40.4590   81.3320 O   0  0  0  0  0  0  0  0  0  0  0  0
  -52.9270  -38.5930   78.9840 C   0  0  0  0  0  0  0  0  0  0  0  0
  -53.2290  -37.8390   77.7200 C   0  0  0  0  0  0  0  0  0  0  0  0
  -52.8660  -38.3530   76.4860 C   0  0  0  0  0  0  0  0  0  0  0  0
  -53.8690  -36.6110   77.7680 C   0  0  0  0  0  0  0  0  0  0  0  0
  -53.1410  -37.6590   75.3230 C   0  0  0  0  0  0  0  0  0  0  0  0
  -54.1450  -35.9110   76.6090 C   0  0  0  0  0  0  0  0  0  0  0  0
  -53.7790  -36.4350   75.3840 C   0  0  0  0  0  0  0  0  0  0  0  0
  -52.1320  -41.8520   79.8360 N   0  0  0  0  0  0  0  0  0  0  0  0
  -51.3940  -42.6290   80.8130 C   0  0  2  0  0  0  0  0  0  0  0  0
  -49.9050  -42.5870   80.4910 C   0  0  0  0  0  0  0  0  0  0  0  0
  -49.5280  -42.6050   79.3140 O   0  0  0  0  0  0  0  0  0  0  0  0
  -51.8770  -44.0880   80.8440 C   0  0  0  0  0  0  0  0  0  0  0  0
  -53.0580  -44.3230   81.7740 C   0  0  0  0  0  0  0  0  0  0  0  0
  -53.6940  -45.6880   81.5850 C   0  0  0  0  0  0  0  0  0  0  0  0
  -53.8360  -46.1700   80.4600 O   0  0  0  0  0  0  0  0  0  0  0  0
  -54.0810  -46.3180   82.6880 N   0  0  0  0  0  0  0  0  0  0  0  0
  2  1  1  0
  3  2  1  0
  4  3  2  0
  5  3  1  0
  6  5  1  0
  7  6  1  0
  8  7  2  0
 10  9  1  1
 11 10  1  0
 12 11  2  0
 13 10  1  0
 14 13  1  0
 15 14  2  0
 16 14  1  0
 17 15  1  0
 18 16  2  0
 19 17  2  0
 19 18  1  0
 20 19  1  0
 22 21  1  1
 23 22  1  0
 24 23  2  0
 25 22  1  0
 26 25  1  0
 27 26  1  0
 28 26  1  0
 30 29  1  1
 31 30  1  0
 32 31  2  0
 33 30  1  0
 34 33  1  0
 35 34  1  0
 36 35  2  0
 37 35  1  0
 38 31  1  0
 39 38  1  0
 40 39  1  0
 41 40  2  0
 42 40  1  0
 43 42  1  0
 44 43  1  0
 45 44  2  0
 43 46  1  6
 47 46  1  0
 48 47  2  0
 49 47  1  0
 50 48  1  0
 51 49  2  0
 52 50  2  0
 52 51  1  0
 53 44  1  0
 54 53  1  0
 55 54  1  0
 56 55  2  0
 54 57  1  6
 58 57  1  0
 59 58  2  0
 60 58  1  0
 61 55  1  0
 62 61  1  0
 63 62  1  0
 64 63  2  0
 62 65  1  1
 66 65  1  0
 67 63  1  0
 68 67  1  0
 69 68  1  0
 70 69  2  0
 68 71  1  6
 72 71  1  0
 73 72  2  0
 74 72  1  0
 75 73  1  0
 76 74  2  0
 77 75  2  0
 77 76  1  0
 78 77  1  0
 79 69  1  0
 80 79  1  0
 81 80  1  0
 82 81  2  0
 80 83  1  1
 84 83  1  0
 85 84  2  0
 86 84  1  0
 87 85  1  0
 88 86  2  0
 89 87  2  0
 89 88  1  0
 91 90  1  1
 92 91  1  0
 93 92  2  0
 94 91  1  0
 95 94  1  0
 96 95  1  0
 97 95  1  0
 98 92  1  0
 99 98  1  0
100 99  1  0
101100  2  0
 99102  1  6
103102  1  0
104103  1  0
105104  2  0
106104  1  0
107100  1  0
108107  1  0
109108  1  0
110109  2  0
108111  1  1
112111  1  0
113109  1  0
114113  1  0
115114  1  0
116115  2  0
114117  1  1
118117  1  0
119118  2  0
120118  1  0
121119  1  0
122120  2  0
123122  1  0
123121  2  0
124123  1  0
125115  1  0
126125  1  0
127126  1  0
128127  2  0
129127  1  0
130129  1  0
131130  1  0
132131  2  0
130133  1  1
134133  1  0
135134  2  0
136134  1  0
137135  1  0
138136  2  0
139137  2  0
139138  1  0
140131  1  0
141140  1  0
142141  1  0
143142  2  0
141144  1  6
145144  1  0
146145  1  0
147146  2  0
148146  1  0
M  END
$$$$
