
     RDKit          3D

 88 86  0  0  0  0  0  0  0  0999 V2000
  -94.1470  -31.1250   15.0980 N   0  0  0  0  0  0  0  0  0  0  0  0
  -93.7200  -30.9060   13.6850 C   0  0  2  0  0  0  0  0  0  0  0  0
  -92.9430  -32.1080   13.1180 C   0  0  0  0  0  0  0  0  0  0  0  0
  -92.6130  -32.1230   11.9130 O   0  0  0  0  0  0  0  0  0  0  0  0
  -92.8770  -29.6280   13.6460 C   0  0  0  0  0  0  0  0  0  0  0  0
  -93.6660  -28.3470   13.9340 C   0  0  0  0  0  0  0  0  0  0  0  0
  -92.7600  -27.1230   13.9280 C   0  0  0  0  0  0  0  0  0  0  0  0
  -94.8080  -28.1760   12.9330 C   0  0  0  0  0  0  0  0  0  0  0  0
  -92.6730  -33.0910   13.9990 N   0  0  0  0  0  0  0  0  0  0  0  0
  -92.0920  -34.3950   13.6880 C   0  0  2  0  0  0  0  0  0  0  0  0
  -93.1780  -35.4490   13.9130 C   0  0  0  0  0  0  0  0  0  0  0  0
  -93.8760  -35.4260   14.9170 O   0  0  0  0  0  0  0  0  0  0  0  0
  -90.8280  -34.6640   14.5240 C   0  0  2  0  0  0  0  0  0  0  0  0
  -91.1200  -34.7410   16.0240 C   0  0  0  0  0  0  0  0  0  0  0  0
  -89.7520  -33.6170   14.2320 C   0  0  0  0  0  0  0  0  0  0  0  0
  -89.9010  -35.0940   16.8840 C   0  0  0  0  0  0  0  0  0  0  0  0
  -93.3610  -36.3530   12.9580 N   0  0  0  0  0  0  0  0  0  0  0  0
  -92.5570  -36.4750   11.7550 C   0  0  2  0  0  0  0  0  0  0  0  0
  -92.8050  -35.3220   10.7760 C   0  0  0  0  0  0  0  0  0  0  0  0
  -93.8710  -34.7050   10.8150 O   0  0  0  0  0  0  0  0  0  0  0  0
  -93.0240  -37.7970   11.1240 C   0  0  0  0  0  0  0  0  0  0  0  0
  -94.4180  -37.9980   11.7210 C   0  0  0  0  0  0  0  0  0  0  0  0
  -94.2730  -37.4760   13.1320 C   0  0  0  0  0  0  0  0  0  0  0  0
  -91.8200  -35.0640    9.9010 N   0  0  0  0  0  0  0  0  0  0  0  0
  -91.8780  -33.9580    8.9480 C   0  0  2  0  0  0  0  0  0  0  0  0
  -92.9120  -34.2900    7.8690 C   0  0  0  0  0  0  0  0  0  0  0  0
  -93.1520  -35.4210    7.5600 O   0  0  0  0  0  0  0  0  0  0  0  0
  -90.4900  -33.6430    8.3430 C   0  0  0  0  0  0  0  0  0  0  0  0
  -89.5030  -33.1900    9.4150 C   0  0  0  0  0  0  0  0  0  0  0  0
  -89.9080  -34.8280    7.5700 C   0  0  0  0  0  0  0  0  0  0  0  0
  -93.4980  -33.2450    7.2900 N   0  0  0  0  0  0  0  0  0  0  0  0
  -94.3650  -33.3410    6.1400 C   0  0  0  0  0  0  0  0  0  0  0  0
  -95.4020  -32.2250    6.1330 C   0  0  0  0  0  0  0  0  0  0  0  0
  -95.7420  -31.6780    7.1880 O   0  0  0  0  0  0  0  0  0  0  0  0
  -95.9500  -31.8850    4.9500 N   0  0  0  0  0  0  0  0  0  0  0  0
  -96.8180  -30.7290    4.8020 C   0  0  2  0  0  0  0  0  0  0  0  0
  -98.1820  -30.9780    5.4360 C   0  0  0  0  0  0  0  0  0  0  0  0
  -98.5680  -32.1450    5.5930 O   0  0  0  0  0  0  0  0  0  0  0  0
  -97.0400  -30.6320    3.2890 C   0  0  0  0  0  0  0  0  0  0  0  0
  -96.9200  -32.0560    2.7910 C   0  0  0  0  0  0  0  0  0  0  0  0
  -95.8550  -32.6470    3.6960 C   0  0  0  0  0  0  0  0  0  0  0  0
  -97.0650  -27.1840    0.7240 N   0  0  0  0  0  0  0  0  0  0  0  0
  -95.8920  -27.4780   -0.1740 C   0  0  2  0  0  0  0  0  0  0  0  0
  -95.7610  -26.4560   -1.3210 C   0  0  0  0  0  0  0  0  0  0  0  0
  -94.6860  -25.9140   -1.5490 O   0  0  0  0  0  0  0  0  0  0  0  0
  -96.0040  -28.8590   -0.8250 C   0  0  0  0  0  0  0  0  0  0  0  0
  -95.6040  -30.0620    0.0190 C   0  0  0  0  0  0  0  0  0  0  0  0
  -95.6530  -31.3910   -0.7380 C   0  0  0  0  0  0  0  0  0  0  0  0
  -94.9040  -31.3470   -2.0600 C   0  0  0  0  0  0  0  0  0  0  0  0
  -94.5610  -32.6990   -2.5730 N   0  0  0  0  0  0  0  0  0  0  0  0
  -97.0680  -37.3980    6.0640 N   0  0  0  0  0  0  0  0  0  0  0  0
  -95.6550  -37.6840    6.2760 C   0  0  2  0  0  0  0  0  0  0  0  0
  -94.9840  -37.8820    4.9100 C   0  0  0  0  0  0  0  0  0  0  0  0
  -95.6420  -38.0930    3.8800 O   0  0  0  0  0  0  0  0  0  0  0  0
  -95.4550  -38.8710    7.2210 C   0  0  0  0  0  0  0  0  0  0  0  0
  -95.8730  -40.2180    6.6580 C   0  0  0  0  0  0  0  0  0  0  0  0
  -95.5960  -41.3310    7.6530 C   0  0  0  0  0  0  0  0  0  0  0  0
  -96.3710  -42.5320    7.3480 N   0  0  0  0  0  0  0  0  0  0  0  0
  -96.1570  -43.3500    6.3160 C   0  0  0  0  0  0  0  0  0  0  0  0
  -95.2290  -43.0770    5.4140 N   0  0  0  0  0  0  0  0  0  0  0  0
  -96.8820  -44.4480    6.1880 N   0  0  0  0  0  0  0  0  0  0  0  0
  -93.6550  -37.7730    4.9030 N   0  0  0  0  0  0  0  0  0  0  0  0
  -92.8940  -37.9830    3.7040 C   0  0  2  0  0  0  0  0  0  0  0  0
  -93.0290  -39.4330    3.2780 C   0  0  0  0  0  0  0  0  0  0  0  0
  -93.0100  -40.3370    4.1130 O   0  0  0  0  0  0  0  0  0  0  0  0
  -91.4010  -37.7640    3.9120 C   0  0  0  0  0  0  0  0  0  0  0  0
  -90.9290  -36.3280    3.9780 C   0  0  0  0  0  0  0  0  0  0  0  0
  -89.4070  -36.2640    3.9610 C   0  0  0  0  0  0  0  0  0  0  0  0
  -88.7680  -37.0360    5.0990 C   0  0  0  0  0  0  0  0  0  0  0  0
  -87.2910  -36.9190    5.0700 N   0  0  0  0  0  0  0  0  0  0  0  0
  -93.1420  -39.6130    1.9660 N   0  0  0  0  0  0  0  0  0  0  0  0
  -93.1960  -40.9010    1.3450 C   0  0  0  0  0  0  0  0  0  0  0  0
  -92.4990  -40.8320    0.0110 C   0  0  0  0  0  0  0  0  0  0  0  0
  -92.4100  -39.7440   -0.5730 O   0  0  0  0  0  0  0  0  0  0  0  0
  -92.0110  -41.9850   -0.4630 N   0  0  0  0  0  0  0  0  0  0  0  0
  -91.0810  -41.9950   -1.5680 C   0  0  2  0  0  0  0  0  0  0  0  0
  -91.7710  -41.4870   -2.8320 C   0  0  0  0  0  0  0  0  0  0  0  0
  -91.6090  -40.3160   -3.1750 O   0  0  0  0  0  0  0  0  0  0  0  0
  -90.4060  -43.3180   -1.7520 C   0  0  0  0  0  0  0  0  0  0  0  0
  -89.4270  -43.2100   -2.7750 O   0  0  0  0  0  0  0  0  0  0  0  0
  -96.0310  -38.3950   -0.8370 N   0  0  0  0  0  0  0  0  0  0  0  0
  -96.2990  -38.2310    0.6050 C   0  0  2  0  0  0  0  0  0  0  0  0
  -97.6070  -38.9700    0.9470 C   0  0  0  0  0  0  0  0  0  0  0  0
  -98.5180  -39.0400    0.1130 O   0  0  0  0  0  0  0  0  0  0  0  0
  -96.3750  -36.7480    0.9890 C   0  0  0  0  0  0  0  0  0  0  0  0
  -95.1150  -35.9320    0.7010 C   0  0  0  0  0  0  0  0  0  0  0  0
  -94.0090  -36.5430    0.5940 O   0  0  0  0  0  0  0  0  0  0  0  0
  -95.2440  -34.6830    0.5630 O   0  0  0  0  0  0  0  0  0  0  0  0
  2  1  1  1
  3  2  1  0
  4  3  2  0
  5  2  1  0
  6  5  1  0
  7  6  1  0
  8  6  1  0
  9  3  1  0
 10  9  1  1
 11 10  1  0
 12 11  2  0
 13 10  1  0
 14 13  1  0
 13 15  1  1
 16 14  1  0
 17 11  1  0
 18 17  1  0
 18 19  1  6
 20 19  2  0
 21 18  1  0
 22 21  1  0
 23 22  1  0
 23 17  1  0
 24 19  1  0
 25 24  1  1
 26 25  1  0
 27 26  2  0
 28 25  1  0
 29 28  1  0
 30 28  1  0
 31 26  1  0
 32 31  1  0
 33 32  1  0
 34 33  2  0
 35 33  1  0
 36 35  1  0
 36 37  1  1
 38 37  2  0
 39 36  1  0
 40 39  1  0
 41 40  1  0
 41 35  1  0
 43 42  1  6
 44 43  1  0
 45 44  2  0
 46 43  1  0
 47 46  1  0
 48 47  1  0
 49 48  1  0
 50 49  1  0
 52 51  1  6
 53 52  1  0
 54 53  2  0
 55 52  1  0
 56 55  1  0
 57 56  1  0
 58 57  1  0
 59 58  1  0
 60 59  1  0
 61 59  2  0
 62 53  1  0
 63 62  1  0
 64 63  1  0
 65 64  2  0
 63 66  1  1
 67 66  1  0
 68 67  1  0
 69 68  1  0
 70 69  1  0
 71 64  1  0
 72 71  1  0
 73 72  1  0
 74 73  2  0
 75 73  1  0
 76 75  1  0
 77 76  1  0
 78 77  2  0
 76 79  1  6
 80 79  1  0
 82 81  1  6
 83 82  1  0
 84 83  2  0
 85 82  1  0
 86 85  1  0
 87 86  2  0
 88 86  1  0
M  END
$$$$
