
     RDKit          3D

130127  0  0  0  0  0  0  0  0999 V2000
  -44.7550  -16.0050    2.5600 N   0  0  0  0  0  0  0  0  0  0  0  0
  -44.2210  -14.6590    2.7570 C   0  0  2  0  0  0  0  0  0  0  0  0
  -43.1220  -14.7500    3.8120 C   0  0  0  0  0  0  0  0  0  0  0  0
  -43.3800  -15.2050    4.9380 O   0  0  0  0  0  0  0  0  0  0  0  0
  -45.3480  -13.7300    3.2440 C   0  0  0  0  0  0  0  0  0  0  0  0
  -44.8100  -12.4560    3.8580 C   0  0  0  0  0  0  0  0  0  0  0  0
  -46.3330  -13.4380    2.0950 C   0  0  0  0  0  0  0  0  0  0  0  0
  -41.8950  -14.3110    3.5320 N   0  0  0  0  0  0  0  0  0  0  0  0
  -40.8540  -14.3710    4.5650 C   0  0  2  0  0  0  0  0  0  0  0  0
  -41.2250  -13.5500    5.7930 C   0  0  0  0  0  0  0  0  0  0  0  0
  -41.6260  -12.3900    5.6840 O   0  0  0  0  0  0  0  0  0  0  0  0
  -39.6150  -13.8050    3.8550 C   0  0  0  0  0  0  0  0  0  0  0  0
  -39.8970  -14.1000    2.3870 C   0  0  0  0  0  0  0  0  0  0  0  0
  -41.3730  -13.8220    2.2500 C   0  0  0  0  0  0  0  0  0  0  0  0
  -41.0410  -14.1620    6.9650 N   0  0  0  0  0  0  0  0  0  0  0  0
  -41.3080  -13.5300    8.2570 C   0  0  2  0  0  0  0  0  0  0  0  0
  -40.1840  -13.9720    9.1790 C   0  0  0  0  0  0  0  0  0  0  0  0
  -39.8580  -15.1640    9.2280 O   0  0  0  0  0  0  0  0  0  0  0  0
  -42.6600  -13.9990    8.8330 C   0  0  0  0  0  0  0  0  0  0  0  0
  -42.7870  -13.6200   10.3260 C   0  0  0  0  0  0  0  0  0  0  0  0
  -43.8240  -13.4170    8.0040 C   0  0  0  0  0  0  0  0  0  0  0  0
  -39.5950  -13.0340    9.9290 N   0  0  0  0  0  0  0  0  0  0  0  0
  -38.6330  -13.4120   10.9520 C   0  0  2  0  0  0  0  0  0  0  0  0
  -38.9630  -12.6830   12.2430 C   0  0  0  0  0  0  0  0  0  0  0  0
  -39.5480  -11.5980   12.2310 O   0  0  0  0  0  0  0  0  0  0  0  0
  -37.1550  -13.2050   10.5160 C   0  0  0  0  0  0  0  0  0  0  0  0
  -36.6760  -11.5170   10.2240 S   0  0  0  0  0  0  0  0  0  0  0  0
  -30.9250   -5.8410    7.3500 N   0  0  0  0  0  0  0  0  0  0  0  0
  -31.5910   -6.9220    6.6300 C   0  0  2  0  0  0  0  0  0  0  0  0
  -32.0540   -7.9620    7.6430 C   0  0  0  0  0  0  0  0  0  0  0  0
  -31.3410   -8.2560    8.6050 O   0  0  0  0  0  0  0  0  0  0  0  0
  -30.6040   -7.6870    5.7130 C   0  0  0  0  0  0  0  0  0  0  0  0
  -30.0750   -6.9160    4.5170 C   0  0  0  0  0  0  0  0  0  0  0  0
  -30.8040   -5.8980    3.9010 C   0  0  0  0  0  0  0  0  0  0  0  0
  -28.8530   -7.2750    3.9830 C   0  0  0  0  0  0  0  0  0  0  0  0
  -30.2860   -5.2240    2.7870 C   0  0  0  0  0  0  0  0  0  0  0  0
  -28.3300   -6.6170    2.8650 C   0  0  0  0  0  0  0  0  0  0  0  0
  -29.0500   -5.6060    2.2590 C   0  0  0  0  0  0  0  0  0  0  0  0
  -33.2350   -8.5160    7.4000 N   0  0  0  0  0  0  0  0  0  0  0  0
  -33.8390   -9.6690    8.0910 C   0  0  2  0  0  0  0  0  0  0  0  0
  -33.8040   -9.3840    9.6020 C   0  0  0  0  0  0  0  0  0  0  0  0
  -34.0540   -8.2470   10.0410 O   0  0  0  0  0  0  0  0  0  0  0  0
  -33.0870  -10.8970    7.6150 C   0  0  0  0  0  0  0  0  0  0  0  0
  -33.7250  -12.3430    7.7040 C   0  0  0  0  0  0  0  0  0  0  0  0
  -33.7410  -13.1490    8.9520 C   0  0  0  0  0  0  0  0  0  0  0  0
  -32.9350  -12.9670    9.8670 O   0  0  0  0  0  0  0  0  0  0  0  0
  -34.4090  -14.2040    8.8480 O   0  0  0  0  0  0  0  0  0  0  0  0
  -33.4510  -10.3520   10.4380 N   0  0  0  0  0  0  0  0  0  0  0  0
  -33.5190  -10.1820   11.8870 C   0  0  2  0  0  0  0  0  0  0  0  0
  -32.1690  -10.4950   12.5190 C   0  0  0  0  0  0  0  0  0  0  0  0
  -31.4460  -11.3840   12.0650 O   0  0  0  0  0  0  0  0  0  0  0  0
  -34.5720  -11.1350   12.5030 C   0  0  0  0  0  0  0  0  0  0  0  0
  -36.3110  -10.7280   12.0970 S   0  0  0  0  0  0  0  0  0  0  0  0
  -31.9160  -14.4260   15.6460 N   0  0  0  0  0  0  0  0  0  0  0  0
  -33.1790  -15.0460   15.2630 C   0  0  2  0  0  0  0  0  0  0  0  0
  -33.6740  -15.9950   16.3480 C   0  0  0  0  0  0  0  0  0  0  0  0
  -32.9190  -16.8260   16.8710 O   0  0  0  0  0  0  0  0  0  0  0  0
  -32.9540  -15.7880   13.9350 C   0  0  0  0  0  0  0  0  0  0  0  0
  -34.1500  -16.6570   13.5950 C   0  0  0  0  0  0  0  0  0  0  0  0
  -32.6270  -14.7920   12.7950 C   0  0  0  0  0  0  0  0  0  0  0  0
  -36.9690  -17.7290   15.9650 N   0  0  0  0  0  0  0  0  0  0  0  0
  -37.7650  -18.7900   15.3310 C   0  0  2  0  0  0  0  0  0  0  0  0
  -37.7620  -18.6380   13.8130 C   0  0  0  0  0  0  0  0  0  0  0  0
  -37.5500  -17.5490   13.2730 O   0  0  0  0  0  0  0  0  0  0  0  0
  -39.2500  -18.8590   15.7280 C   0  0  0  0  0  0  0  0  0  0  0  0
  -40.2780  -17.7500   15.4890 C   0  0  0  0  0  0  0  0  0  0  0  0
  -40.8780  -17.7370   14.0690 C   0  0  0  0  0  0  0  0  0  0  0  0
  -41.4130  -18.0810   16.4280 C   0  0  0  0  0  0  0  0  0  0  0  0
  -38.1060  -19.7440   13.1430 N   0  0  0  0  0  0  0  0  0  0  0  0
  -38.2560  -19.8350   11.6940 C   0  0  2  0  0  0  0  0  0  0  0  0
  -39.7260  -20.0230   11.3270 C   0  0  0  0  0  0  0  0  0  0  0  0
  -40.4630  -20.7270   12.0150 O   0  0  0  0  0  0  0  0  0  0  0  0
  -37.5530  -21.0850   11.1740 C   0  0  0  0  0  0  0  0  0  0  0  0
  -36.0810  -20.9700   10.9840 C   0  0  0  0  0  0  0  0  0  0  0  0
  -35.5900  -22.2590   10.3700 C   0  0  0  0  0  0  0  0  0  0  0  0
  -35.5640  -22.1630    8.9110 N   0  0  0  0  0  0  0  0  0  0  0  0
  -34.6820  -22.7890    8.1430 C   0  0  0  0  0  0  0  0  0  0  0  0
  -33.7640  -23.5740    8.6990 N   0  0  0  0  0  0  0  0  0  0  0  0
  -34.7160  -22.6390    6.8180 N   0  0  0  0  0  0  0  0  0  0  0  0
  -40.1300  -19.4450   10.1880 N   0  0  0  0  0  0  0  0  0  0  0  0
  -41.4620  -19.6560    9.6420 C   0  0  2  0  0  0  0  0  0  0  0  0
  -41.4810  -20.3530    8.2820 C   0  0  0  0  0  0  0  0  0  0  0  0
  -42.5650  -20.7480    7.8320 O   0  0  0  0  0  0  0  0  0  0  0  0
  -42.2400  -18.3350    9.5570 C   0  0  2  0  0  0  0  0  0  0  0  0
  -43.6070  -18.5970    9.2220 O   0  0  0  0  0  0  0  0  0  0  0  0
  -41.6740  -17.4580    8.4550 C   0  0  0  0  0  0  0  0  0  0  0  0
  -40.3360  -20.5150    7.6160 N   0  0  0  0  0  0  0  0  0  0  0  0
  -40.3070  -21.1800    6.3080 C   0  0  2  0  0  0  0  0  0  0  0  0
  -40.3380  -22.7030    6.4070 C   0  0  0  0  0  0  0  0  0  0  0  0
  -40.7020  -23.3740    5.4330 O   0  0  0  0  0  0  0  0  0  0  0  0
  -39.0650  -20.7500    5.5160 C   0  0  0  0  0  0  0  0  0  0  0  0
  -37.7870  -21.0380    6.2680 C   0  0  0  0  0  0  0  0  0  0  0  0
  -37.8040  -20.9410    7.5140 O   0  0  0  0  0  0  0  0  0  0  0  0
  -36.7730  -21.3620    5.6170 O   0  0  0  0  0  0  0  0  0  0  0  0
  -40.4240   -8.9250   11.4640 N   0  0  0  0  0  0  0  0  0  0  0  0
  -40.1350   -8.3860   10.1430 C   0  0  2  0  0  0  0  0  0  0  0  0
  -40.8110   -9.2440    9.0810 C   0  0  0  0  0  0  0  0  0  0  0  0
  -40.7510  -10.4790    9.1440 O   0  0  0  0  0  0  0  0  0  0  0  0
  -38.6210   -8.3220    9.9070 C   0  0  0  0  0  0  0  0  0  0  0  0
  -38.2540   -7.5320    8.7000 C   0  0  0  0  0  0  0  0  0  0  0  0
  -36.7500   -7.3640    8.6780 C   0  0  0  0  0  0  0  0  0  0  0  0
  -36.3030   -6.5170    7.5600 N   0  0  0  0  0  0  0  0  0  0  0  0
  -35.2210   -5.7490    7.5670 C   0  0  0  0  0  0  0  0  0  0  0  0
  -34.3980   -5.7150    8.6170 N   0  0  0  0  0  0  0  0  0  0  0  0
  -34.9440   -5.0070    6.5030 N   0  0  0  0  0  0  0  0  0  0  0  0
  -41.4310   -8.5850    8.0950 N   0  0  0  0  0  0  0  0  0  0  0  0
  -42.1920   -9.2640    7.0460 C   0  0  2  0  0  0  0  0  0  0  0  0
  -41.8090   -8.6870    5.6910 C   0  0  0  0  0  0  0  0  0  0  0  0
  -41.7150   -7.4640    5.5370 O   0  0  0  0  0  0  0  0  0  0  0  0
  -43.7140   -9.1010    7.2580 C   0  0  2  0  0  0  0  0  0  0  0  0
  -44.1160   -9.4940    8.6770 C   0  0  0  0  0  0  0  0  0  0  0  0
  -44.5000   -9.9020    6.2090 C   0  0  0  0  0  0  0  0  0  0  0  0
  -44.3840   -8.2940    9.5770 C   0  0  0  0  0  0  0  0  0  0  0  0
  -41.6030   -9.5680    4.7000 N   0  0  0  0  0  0  0  0  0  0  0  0
  -41.3140   -9.1490    3.3290 C   0  0  2  0  0  0  0  0  0  0  0  0
  -42.3590   -9.7200    2.3640 C   0  0  0  0  0  0  0  0  0  0  0  0
  -42.2520  -10.8650    1.9090 O   0  0  0  0  0  0  0  0  0  0  0  0
  -39.9080   -9.5520    2.9220 C   0  0  0  0  0  0  0  0  0  0  0  0
  -39.5100   -8.9500    1.5800 C   0  0  0  0  0  0  0  0  0  0  0  0
  -38.0980   -9.3590    1.1930 C   0  0  0  0  0  0  0  0  0  0  0  0
  -37.8900  -10.3900    0.5390 O   0  0  0  0  0  0  0  0  0  0  0  0
  -37.1210   -8.5970    1.6510 N   0  0  0  0  0  0  0  0  0  0  0  0
  -39.3210   -3.8370    3.6580 N   0  0  0  0  0  0  0  0  0  0  0  0
  -39.9550   -4.7650    4.5680 C   0  0  2  0  0  0  0  0  0  0  0  0
  -40.7370   -3.9730    5.5930 C   0  0  0  0  0  0  0  0  0  0  0  0
  -40.4100   -2.8270    5.9050 O   0  0  0  0  0  0  0  0  0  0  0  0
  -38.8810   -5.5250    5.3440 C   0  0  0  0  0  0  0  0  0  0  0  0
  -37.9860   -6.3560    4.4560 C   0  0  0  0  0  0  0  0  0  0  0  0
  -38.1920   -6.3990    3.2160 O   0  0  0  0  0  0  0  0  0  0  0  0
  -37.0860   -7.0220    4.9970 O   0  0  0  0  0  0  0  0  0  0  0  0
  2  1  1  1
  3  2  1  0
  4  3  2  0
  5  2  1  0
  6  5  1  0
  7  5  1  0
  8  3  1  0
  9  8  1  0
  9 10  1  1
 11 10  2  0
 12  9  1  0
 13 12  1  0
 14 13  1  0
 14  8  1  0
 15 10  1  0
 16 15  1  6
 17 16  1  0
 18 17  2  0
 19 16  1  0
 20 19  1  0
 21 19  1  0
 22 17  1  0
 23 22  1  0
 24 23  1  0
 25 24  2  0
 23 26  1  6
 27 26  1  0
 29 28  1  1
 30 29  1  0
 31 30  2  0
 32 29  1  0
 33 32  1  0
 34 33  2  0
 35 33  1  0
 36 34  1  0
 37 35  2  0
 38 37  1  0
 38 36  2  0
 39 30  1  0
 40 39  1  0
 41 40  1  0
 42 41  2  0
 40 43  1  1
 44 43  1  0
 45 44  1  0
 46 45  2  0
 47 45  1  0
 48 41  1  0
 49 48  1  0
 50 49  1  0
 51 50  2  0
 49 52  1  1
 53 27  1  0
 53 52  1  0
 55 54  1  1
 56 55  1  0
 57 56  2  0
 58 55  1  0
 59 58  1  0
 60 58  1  0
 62 61  1  1
 63 62  1  0
 64 63  2  0
 65 62  1  0
 66 65  1  0
 67 66  1  0
 68 66  1  0
 69 63  1  0
 70 69  1  0
 71 70  1  0
 72 71  2  0
 70 73  1  1
 74 73  1  0
 75 74  1  0
 76 75  1  0
 77 76  1  0
 78 77  1  0
 79 77  2  0
 80 71  1  0
 81 80  1  6
 82 81  1  0
 83 82  2  0
 84 81  1  0
 85 84  1  0
 84 86  1  6
 87 82  1  0
 88 87  1  0
 89 88  1  0
 90 89  2  0
 88 91  1  1
 92 91  1  0
 93 92  2  0
 94 92  1  0
 96 95  1  1
 97 96  1  0
 98 97  2  0
 99 96  1  0
100 99  1  0
101100  1  0
102101  1  0
103102  1  0
104103  1  0
105103  2  0
106 97  1  0
107106  1  1
108107  1  0
109108  2  0
110107  1  0
111110  1  0
110112  1  6
113111  1  0
114108  1  0
115114  1  0
116115  1  0
117116  2  0
115118  1  6
119118  1  0
120119  1  0
121120  2  0
122120  1  0
124123  1  6
125124  1  0
126125  2  0
127124  1  0
128127  1  0
129128  2  0
130128  1  0
M  END
$$$$
