
     RDKit          3D

128126  0  0  0  0  0  0  0  0999 V2000
  215.8820  232.8920  278.6190 N   0  0  0  0  0  0  0  0  0  0  0  0
  217.2350  232.7270  279.2020 C   0  0  2  0  0  0  0  0  0  0  0  0
  218.0580  231.8350  278.2740 C   0  0  0  0  0  0  0  0  0  0  0  0
  217.5010  231.3560  277.2670 O   0  0  0  0  0  0  0  0  0  0  0  0
  217.1580  232.2150  280.6440 C   0  0  0  0  0  0  0  0  0  0  0  0
  216.2540  231.0070  280.8380 C   0  0  0  0  0  0  0  0  0  0  0  0
  216.0390  230.7390  282.3150 C   0  0  0  0  0  0  0  0  0  0  0  0
  217.2900  230.4190  282.9850 N   0  0  0  0  0  0  0  0  0  0  0  0
  217.6760  229.1900  283.3050 C   0  0  0  0  0  0  0  0  0  0  0  0
  218.8370  228.9990  283.9060 N   0  0  0  0  0  0  0  0  0  0  0  0
  216.8970  228.1590  283.0330 N   0  0  0  0  0  0  0  0  0  0  0  0
  219.3620  228.8390  278.8450 N   0  0  0  0  0  0  0  0  0  0  0  0
  219.0780  227.4090  278.9300 C   0  0  2  0  0  0  0  0  0  0  0  0
  217.8680  227.0080  278.0960 C   0  0  0  0  0  0  0  0  0  0  0  0
  217.7920  225.8610  277.6460 O   0  0  0  0  0  0  0  0  0  0  0  0
  218.8660  227.0090  280.3930 C   0  0  0  0  0  0  0  0  0  0  0  0
  220.1690  226.7420  281.1230 C   0  0  0  0  0  0  0  0  0  0  0  0
  220.2260  226.9870  282.3460 O   0  0  0  0  0  0  0  0  0  0  0  0
  221.1340  226.2910  280.4710 O   0  0  0  0  0  0  0  0  0  0  0  0
  217.7960  243.3030  289.2280 N   0  0  0  0  0  0  0  0  0  0  0  0
  216.8060  242.4290  288.6330 C   0  0  0  0  0  0  0  0  0  0  0  0
  215.8130  243.1470  287.7420 C   0  0  0  0  0  0  0  0  0  0  0  0
  215.2160  244.1480  288.1460 O   0  0  0  0  0  0  0  0  0  0  0  0
  206.9920  235.1150  282.1330 N   0  0  0  0  0  0  0  0  0  0  0  0
  206.8550  233.8250  281.4770 C   0  0  2  0  0  0  0  0  0  0  0  0
  205.6770  233.0720  282.0800 C   0  0  0  0  0  0  0  0  0  0  0  0
  205.4300  233.1560  283.2880 O   0  0  0  0  0  0  0  0  0  0  0  0
  208.1340  232.9840  281.5940 C   0  0  0  0  0  0  0  0  0  0  0  0
  208.6180  232.7270  283.0090 C   0  0  0  0  0  0  0  0  0  0  0  0
  209.4280  233.6450  283.6690 C   0  0  0  0  0  0  0  0  0  0  0  0
  208.2730  231.5570  283.6790 C   0  0  0  0  0  0  0  0  0  0  0  0
  209.8720  233.4110  284.9580 C   0  0  0  0  0  0  0  0  0  0  0  0
  208.7130  231.3160  284.9680 C   0  0  0  0  0  0  0  0  0  0  0  0
  209.5130  232.2450  285.6020 C   0  0  0  0  0  0  0  0  0  0  0  0
  209.9530  232.0080  286.8820 O   0  0  0  0  0  0  0  0  0  0  0  0
  205.3820  234.8610  286.0700 N   0  0  0  0  0  0  0  0  0  0  0  0
  206.4470  235.0490  287.0780 C   0  0  2  0  0  0  0  0  0  0  0  0
  207.5490  235.9020  286.4520 C   0  0  0  0  0  0  0  0  0  0  0  0
  207.6210  235.9490  285.2110 O   0  0  0  0  0  0  0  0  0  0  0  0
  206.9570  233.6870  287.5450 C   0  0  0  0  0  0  0  0  0  0  0  0
  207.5780  233.7070  288.9320 C   0  0  0  0  0  0  0  0  0  0  0  0
  207.8740  232.3130  289.4300 C   0  0  0  0  0  0  0  0  0  0  0  0
  207.5680  231.3200  288.7720 O   0  0  0  0  0  0  0  0  0  0  0  0
  208.4730  232.2310  290.6060 N   0  0  0  0  0  0  0  0  0  0  0  0
  208.3630  236.5490  287.2790 N   0  0  0  0  0  0  0  0  0  0  0  0
  209.4310  237.4270  286.8240 C   0  0  2  0  0  0  0  0  0  0  0  0
  210.7160  236.6450  286.5870 C   0  0  0  0  0  0  0  0  0  0  0  0
  211.0750  235.7630  287.3680 O   0  0  0  0  0  0  0  0  0  0  0  0
  209.6800  238.5390  287.8430 C   0  0  0  0  0  0  0  0  0  0  0  0
  210.8440  239.2790  287.5100 O   0  0  0  0  0  0  0  0  0  0  0  0
  211.4070  236.9810  285.4930 N   0  0  0  0  0  0  0  0  0  0  0  0
  212.7070  236.3750  285.2240 C   0  0  2  0  0  0  0  0  0  0  0  0
  213.7720  236.8980  286.1800 C   0  0  0  0  0  0  0  0  0  0  0  0
  214.5690  236.1210  286.7160 O   0  0  0  0  0  0  0  0  0  0  0  0
  213.1250  236.6360  283.7790 C   0  0  0  0  0  0  0  0  0  0  0  0
  212.7080  235.5680  282.7930 C   0  0  0  0  0  0  0  0  0  0  0  0
  213.3360  234.3300  282.7760 C   0  0  0  0  0  0  0  0  0  0  0  0
  211.7010  235.8070  281.8630 C   0  0  0  0  0  0  0  0  0  0  0  0
  212.9650  233.3520  281.8720 C   0  0  0  0  0  0  0  0  0  0  0  0
  211.3250  234.8340  280.9540 C   0  0  0  0  0  0  0  0  0  0  0  0
  211.9610  233.6090  280.9640 C   0  0  0  0  0  0  0  0  0  0  0  0
  211.5910  232.6390  280.0610 O   0  0  0  0  0  0  0  0  0  0  0  0
  213.7920  238.2090  286.4130 N   0  0  0  0  0  0  0  0  0  0  0  0
  214.8050  238.8010  287.2720 C   0  0  0  0  0  0  0  0  0  0  0  0
  216.2100  238.7440  286.7110 C   0  0  0  0  0  0  0  0  0  0  0  0
  217.1370  238.3110  287.4110 O   0  0  0  0  0  0  0  0  0  0  0  0
  216.3890  239.1550  285.4550 N   0  0  0  0  0  0  0  0  0  0  0  0
  217.7070  239.1320  284.8290 C   0  0  2  0  0  0  0  0  0  0  0  0
  218.6490  240.1290  285.4960 C   0  0  0  0  0  0  0  0  0  0  0  0
  218.2640  241.2580  285.8100 O   0  0  0  0  0  0  0  0  0  0  0  0
  217.5930  239.4490  283.3360 C   0  0  0  0  0  0  0  0  0  0  0  0
  216.8660  238.4000  282.5420 C   0  0  0  0  0  0  0  0  0  0  0  0
  217.3130  237.0880  282.5280 C   0  0  0  0  0  0  0  0  0  0  0  0
  215.7570  238.7340  281.7840 C   0  0  0  0  0  0  0  0  0  0  0  0
  216.6530  236.1240  281.7900 C   0  0  0  0  0  0  0  0  0  0  0  0
  215.0920  237.7770  281.0400 C   0  0  0  0  0  0  0  0  0  0  0  0
  215.5410  236.4680  281.0450 C   0  0  0  0  0  0  0  0  0  0  0  0
  219.8930  239.6960  285.7070 N   0  0  0  0  0  0  0  0  0  0  0  0
  220.9490  240.5200  286.2700 C   0  0  2  0  0  0  0  0  0  0  0  0
  222.1910  240.4490  285.3900 C   0  0  0  0  0  0  0  0  0  0  0  0
  222.4250  239.4250  284.7380 O   0  0  0  0  0  0  0  0  0  0  0  0
  221.3010  240.0680  287.6980 C   0  0  0  0  0  0  0  0  0  0  0  0
  220.1380  240.1000  288.6770 C   0  0  0  0  0  0  0  0  0  0  0  0
  220.5590  239.7530  290.0910 C   0  0  0  0  0  0  0  0  0  0  0  0
  221.5060  240.3290  290.6300 O   0  0  0  0  0  0  0  0  0  0  0  0
  219.8530  238.8110  290.7050 N   0  0  0  0  0  0  0  0  0  0  0  0
  225.2130  240.1100  286.3020 N   0  0  0  0  0  0  0  0  0  0  0  0
  226.1800  239.1840  286.8800 C   0  0  2  0  0  0  0  0  0  0  0  0
  225.7470  237.7300  286.7680 C   0  0  0  0  0  0  0  0  0  0  0  0
  226.4450  236.8520  287.2860 O   0  0  0  0  0  0  0  0  0  0  0  0
  226.4300  239.5300  288.3510 C   0  0  2  0  0  0  0  0  0  0  0  0
  225.1990  239.4560  289.0790 O   0  0  0  0  0  0  0  0  0  0  0  0
  227.0040  240.9350  288.4770 C   0  0  0  0  0  0  0  0  0  0  0  0
  224.6070  237.4930  286.1070 N   0  0  0  0  0  0  0  0  0  0  0  0
  224.0490  236.1180  285.9910 C   0  0  2  0  0  0  0  0  0  0  0  0
  224.9300  235.2500  285.0890 C   0  0  0  0  0  0  0  0  0  0  0  0
  225.6600  235.8190  284.2530 O   0  0  0  0  0  0  0  0  0  0  0  0
  222.6060  236.1290  285.4800 C   0  0  0  0  0  0  0  0  0  0  0  0
  221.5920  236.4660  286.5520 C   0  0  0  0  0  0  0  0  0  0  0  0
  220.4220  236.6950  286.2540 O   0  0  0  0  0  0  0  0  0  0  0  0
  222.0270  236.4970  287.8010 N   0  0  0  0  0  0  0  0  0  0  0  0
  224.8420  233.9260  285.2450 N   0  0  0  0  0  0  0  0  0  0  0  0
  225.6210  233.0090  284.4360 C   0  0  0  0  0  0  0  0  0  0  0  0
  225.1250  232.9410  283.0030 C   0  0  0  0  0  0  0  0  0  0  0  0
  224.1640  233.6070  282.6130 O   0  0  0  0  0  0  0  0  0  0  0  0
  225.8130  232.1090  282.2120 N   0  0  0  0  0  0  0  0  0  0  0  0
  225.5270  231.9960  280.7830 C   0  0  2  0  0  0  0  0  0  0  0  0
  224.1180  231.4610  280.5550 C   0  0  0  0  0  0  0  0  0  0  0  0
  223.3670  231.9820  279.7180 O   0  0  0  0  0  0  0  0  0  0  0  0
  226.5910  231.1120  280.1030 C   0  0  0  0  0  0  0  0  0  0  0  0
  226.1590  230.7040  278.7020 C   0  0  0  0  0  0  0  0  0  0  0  0
  227.9330  231.8330  280.0640 C   0  0  0  0  0  0  0  0  0  0  0  0
  223.7240  230.4360  281.3130 N   0  0  0  0  0  0  0  0  0  0  0  0
  222.3740  229.9080  281.2000 C   0  0  0  0  0  0  0  0  0  0  0  0
  221.3010  230.8330  281.7360 C   0  0  0  0  0  0  0  0  0  0  0  0
  220.1400  230.7120  281.3340 O   0  0  0  0  0  0  0  0  0  0  0  0
  221.6610  231.7490  282.6320 N   0  0  0  0  0  0  0  0  0  0  0  0
  220.7110  232.6840  283.2200 C   0  0  2  0  0  0  0  0  0  0  0  0
  220.6920  234.0390  282.5250 C   0  0  0  0  0  0  0  0  0  0  0  0
  219.8470  234.8760  282.8600 O   0  0  0  0  0  0  0  0  0  0  0  0
  221.0120  232.8740  284.7120 C   0  0  0  0  0  0  0  0  0  0  0  0
  220.5500  231.7250  285.5810 C   0  0  0  0  0  0  0  0  0  0  0  0
  221.3730  230.6300  285.8140 C   0  0  0  0  0  0  0  0  0  0  0  0
  219.2900  231.7380  286.1650 C   0  0  0  0  0  0  0  0  0  0  0  0
  220.9530  229.5770  286.6090 C   0  0  0  0  0  0  0  0  0  0  0  0
  218.8600  230.6880  286.9610 C   0  0  0  0  0  0  0  0  0  0  0  0
  219.6970  229.6120  287.1770 C   0  0  0  0  0  0  0  0  0  0  0  0
  219.2750  228.5680  287.9650 O   0  0  0  0  0  0  0  0  0  0  0  0
  2  1  1  6
  3  2  1  0
  4  3  2  0
  5  2  1  0
  6  5  1  0
  7  6  1  0
  8  7  1  0
  9  8  1  0
 10  9  1  0
 11  9  2  0
 13 12  1  1
 14 13  1  0
 15 14  2  0
 16 13  1  0
 17 16  1  0
 18 17  2  0
 19 17  1  0
 21 20  1  0
 22 21  1  0
 23 22  2  0
 25 24  1  1
 26 25  1  0
 27 26  2  0
 28 25  1  0
 29 28  1  0
 30 29  2  0
 31 29  1  0
 32 30  1  0
 33 31  2  0
 34 33  1  0
 34 32  2  0
 35 34  1  0
 37 36  1  6
 38 37  1  0
 39 38  2  0
 40 37  1  0
 41 40  1  0
 42 41  1  0
 43 42  2  0
 44 42  1  0
 45 38  1  0
 46 45  1  0
 47 46  1  0
 48 47  2  0
 46 49  1  1
 50 49  1  0
 51 47  1  0
 52 51  1  0
 53 52  1  0
 54 53  2  0
 52 55  1  6
 56 55  1  0
 57 56  2  0
 58 56  1  0
 59 57  1  0
 60 58  2  0
 61 60  1  0
 61 59  2  0
 62 61  1  0
 63 53  1  0
 64 63  1  0
 65 64  1  0
 66 65  2  0
 67 65  1  0
 68 67  1  0
 69 68  1  0
 70 69  2  0
 68 71  1  6
 72 71  1  0
 73 72  2  0
 74 72  1  0
 75 73  1  0
 76 74  2  0
 77 76  1  0
 77 75  2  0
 78 69  1  0
 79 78  1  0
 80 79  1  0
 81 80  2  0
 79 82  1  1
 83 82  1  0
 84 83  1  0
 85 84  2  0
 86 84  1  0
 88 87  1  1
 89 88  1  0
 90 89  2  0
 91 88  1  0
 92 91  1  0
 91 93  1  6
 94 89  1  0
 95 94  1  0
 96 95  1  0
 97 96  2  0
 95 98  1  6
 99 98  1  0
100 99  2  0
101 99  1  0
102 96  1  0
103102  1  0
104103  1  0
105104  2  0
106104  1  0
107106  1  1
108107  1  0
109108  2  0
110107  1  0
111110  1  0
112110  1  0
113108  1  0
114113  1  0
115114  1  0
116115  2  0
117115  1  0
118117  1  0
119118  1  0
120119  2  0
118121  1  1
122121  1  0
123122  2  0
124122  1  0
125123  1  0
126124  2  0
127126  1  0
127125  2  0
128127  1  0
M  END
$$$$
