
     RDKit          3D

133134  0  0  0  0  0  0  0  0999 V2000
    4.3500   19.7410   -2.7740 N   0  0  0  0  0  0  0  0  0  0  0  0
    5.4620   19.2400   -3.5510 C   0  0  0  0  0  0  0  0  0  0  0  0
    6.7250   19.1140   -2.7450 C   0  0  0  0  0  0  0  0  0  0  0  0
    7.8200   19.1440   -3.3150 O   0  0  0  0  0  0  0  0  0  0  0  0
    6.5970   19.0230   -1.4210 N   0  0  0  0  0  0  0  0  0  0  0  0
    7.7170   18.8430   -0.5190 C   0  0  0  0  0  0  0  0  0  0  0  0
    7.7280   19.7900    0.6650 C   0  0  0  0  0  0  0  0  0  0  0  0
    7.4880   20.9900    0.5030 O   0  0  0  0  0  0  0  0  0  0  0  0
    7.9800   19.2570    1.8620 N   0  0  0  0  0  0  0  0  0  0  0  0
    8.3090   20.0360    3.0630 C   0  0  2  0  0  0  0  0  0  0  0  0
    9.6420   19.5110    3.5670 C   0  0  0  0  0  0  0  0  0  0  0  0
    9.6700   18.5490    4.3390 O   0  0  0  0  0  0  0  0  0  0  0  0
    7.2560   19.9310    4.1350 C   0  0  0  0  0  0  0  0  0  0  0  0
    7.6990   20.4880    5.4650 C   0  0  0  0  0  0  0  0  0  0  0  0
    8.4940   21.4160    5.5580 O   0  0  0  0  0  0  0  0  0  0  0  0
    7.2070   19.8780    6.5140 N   0  0  0  0  0  0  0  0  0  0  0  0
   10.7220   20.1720    3.1300 N   0  0  0  0  0  0  0  0  0  0  0  0
   12.1090   19.8760    3.4770 C   0  0  2  0  0  0  0  0  0  0  0  0
   12.6120   20.7210    4.6280 C   0  0  0  0  0  0  0  0  0  0  0  0
   13.7510   20.5590    5.0640 O   0  0  0  0  0  0  0  0  0  0  0  0
   12.9810   20.1300    2.2770 C   0  0  0  0  0  0  0  0  0  0  0  0
   12.3100   19.7070    1.0340 C   0  0  0  0  0  0  0  0  0  0  0  0
   12.0010   18.3660    0.8290 C   0  0  0  0  0  0  0  0  0  0  0  0
   11.8940   20.6520    0.0920 C   0  0  0  0  0  0  0  0  0  0  0  0
   11.3900   17.9590   -0.3170 C   0  0  0  0  0  0  0  0  0  0  0  0
   11.2660   20.2580   -1.0670 C   0  0  0  0  0  0  0  0  0  0  0  0
   11.0150   18.9040   -1.2650 C   0  0  0  0  0  0  0  0  0  0  0  0
   10.3730   18.4730   -2.4010 O   0  0  0  0  0  0  0  0  0  0  0  0
   12.0900   20.2630    7.4760 N   0  0  0  0  0  0  0  0  0  0  0  0
   12.2410   19.3490    8.5910 C   0  0  2  0  0  0  0  0  0  0  0  0
   13.1950   18.2150    8.2550 C   0  0  0  0  0  0  0  0  0  0  0  0
   13.4670   17.9420    7.0860 O   0  0  0  0  0  0  0  0  0  0  0  0
   10.9080   18.7820    9.0110 C   0  0  0  0  0  0  0  0  0  0  0  0
   10.0250   19.8660    9.4930 C   0  0  0  0  0  0  0  0  0  0  0  0
   10.5340   20.8900   10.2930 C   0  0  0  0  0  0  0  0  0  0  0  0
    8.6830   19.8600    9.2100 C   0  0  0  0  0  0  0  0  0  0  0  0
    9.7160   21.9080   10.7530 C   0  0  0  0  0  0  0  0  0  0  0  0
    7.8650   20.8560    9.6620 C   0  0  0  0  0  0  0  0  0  0  0  0
    8.3660   21.8770   10.4550 C   0  0  0  0  0  0  0  0  0  0  0  0
    7.5440   22.8810   10.9370 O   0  0  0  0  0  0  0  0  0  0  0  0
   31.3000   11.7140    0.2740 N   0  0  0  0  0  0  0  0  0  0  0  0
   30.3360   10.6150    0.4580 C   0  0  2  0  0  0  0  0  0  0  0  0
   30.2310    9.7970   -0.8130 C   0  0  0  0  0  0  0  0  0  0  0  0
   31.1710    9.8080   -1.6210 O   0  0  0  0  0  0  0  0  0  0  0  0
   28.9520   11.1920    0.7480 C   0  0  0  0  0  0  0  0  0  0  0  0
   28.9480   12.6850    0.9930 C   0  0  0  0  0  0  0  0  0  0  0  0
   27.5550   13.2500    1.1950 C   0  0  0  0  0  0  0  0  0  0  0  0
   26.5990   12.4560    1.2130 O   0  0  0  0  0  0  0  0  0  0  0  0
   27.4330   14.4770    1.3280 O   0  0  0  0  0  0  0  0  0  0  0  0
   29.0950    9.1320   -0.9700 N   0  0  0  0  0  0  0  0  0  0  0  0
   28.9380    8.2560   -2.1110 C   0  0  0  0  0  0  0  0  0  0  0  0
   28.6010    6.8880   -1.5830 C   0  0  0  0  0  0  0  0  0  0  0  0
   27.7430    6.7580   -0.7130 O   0  0  0  0  0  0  0  0  0  0  0  0
   29.9340    5.7200    2.4670 N   0  0  0  0  0  0  0  0  0  0  0  0
   30.0040    7.0710    2.9980 C   0  0  2  0  0  0  0  0  0  0  0  0
   28.6980    7.7900    2.6920 C   0  0  0  0  0  0  0  0  0  0  0  0
   28.4320    8.0990    1.5280 O   0  0  0  0  0  0  0  0  0  0  0  0
   31.1480    7.8370    2.3480 C   0  0  0  0  0  0  0  0  0  0  0  0
   32.7530    7.3310    2.7350 S   0  0  0  0  0  0  0  0  0  0  0  0
   27.9080    8.1180    3.7040 N   0  0  0  0  0  0  0  0  0  0  0  0
   26.5470    8.6110    3.4840 C   0  0  2  0  0  0  0  0  0  0  0  0
   26.3890   10.0070    4.0860 C   0  0  0  0  0  0  0  0  0  0  0  0
   27.3500   10.6320    4.5240 O   0  0  0  0  0  0  0  0  0  0  0  0
   25.5180    7.6190    4.0540 C   0  0  0  0  0  0  0  0  0  0  0  0
   25.0470    6.5760    3.0450 C   0  0  0  0  0  0  0  0  0  0  0  0
   25.9320    5.6460    2.4980 C   0  0  0  0  0  0  0  0  0  0  0  0
   23.7130    6.5270    2.6370 C   0  0  0  0  0  0  0  0  0  0  0  0
   25.5060    4.7020    1.5670 C   0  0  0  0  0  0  0  0  0  0  0  0
   23.2730    5.5850    1.7090 C   0  0  0  0  0  0  0  0  0  0  0  0
   24.1750    4.6760    1.1730 C   0  0  0  0  0  0  0  0  0  0  0  0
   23.7330    3.7460    0.2480 O   0  0  0  0  0  0  0  0  0  0  0  0
   25.1640   10.5160    4.0550 N   0  0  0  0  0  0  0  0  0  0  0  0
   24.7990   11.7450    4.7420 C   0  0  2  0  0  0  0  0  0  0  0  0
   23.8640   11.3630    5.8690 C   0  0  0  0  0  0  0  0  0  0  0  0
   22.7880   10.8160    5.5850 O   0  0  0  0  0  0  0  0  0  0  0  0
   24.1170   12.7120    3.7830 C   0  0  0  0  0  0  0  0  0  0  0  0
   24.1840   14.1690    4.1860 C   0  0  0  0  0  0  0  0  0  0  0  0
   23.1990   14.7290    5.0030 C   0  0  0  0  0  0  0  0  0  0  0  0
   25.1910   14.9870    3.7160 C   0  0  0  0  0  0  0  0  0  0  0  0
   23.2390   16.0680    5.3560 C   0  0  0  0  0  0  0  0  0  0  0  0
   25.2400   16.3260    4.0750 C   0  0  0  0  0  0  0  0  0  0  0  0
   24.2640   16.8630    4.8950 C   0  0  0  0  0  0  0  0  0  0  0  0
   18.0070   12.2320    7.0350 N   0  0  0  0  0  0  0  0  0  0  0  0
   17.1240   12.4940    5.9050 C   0  0  2  0  0  0  0  0  0  0  0  0
   16.0330   13.4460    6.3600 C   0  0  0  0  0  0  0  0  0  0  0  0
   15.7350   13.5560    7.5510 O   0  0  0  0  0  0  0  0  0  0  0  0
   16.4930   11.2320    5.3060 C   0  0  0  0  0  0  0  0  0  0  0  0
   17.4920   10.3150    4.5970 C   0  0  0  0  0  0  0  0  0  0  0  0
   18.2060   10.9920    3.4180 C   0  0  0  0  0  0  0  0  0  0  0  0
   17.6020   11.2910    2.3990 O   0  0  0  0  0  0  0  0  0  0  0  0
   19.4960   11.2250    3.5610 N   0  0  0  0  0  0  0  0  0  0  0  0
   15.4730   14.1740    5.4090 N   0  0  0  0  0  0  0  0  0  0  0  0
   14.3880   15.0680    5.7560 C   0  0  2  0  0  0  0  0  0  0  0  0
   13.0920   14.2850    5.8760 C   0  0  0  0  0  0  0  0  0  0  0  0
   12.9200   13.2120    5.2930 O   0  0  0  0  0  0  0  0  0  0  0  0
   14.1870   16.1270    4.6940 C   0  0  0  0  0  0  0  0  0  0  0  0
   13.2990   15.6220    3.7120 O   0  0  0  0  0  0  0  0  0  0  0  0
   12.1510   14.8600    6.6070 N   0  0  0  0  0  0  0  0  0  0  0  0
   10.8520   14.2240    6.7150 C   0  0  2  0  0  0  0  0  0  0  0  0
   10.0790   14.3000    5.4150 C   0  0  0  0  0  0  0  0  0  0  0  0
    9.2520   13.4190    5.1530 O   0  0  0  0  0  0  0  0  0  0  0  0
   10.0450   14.8720    7.8110 C   0  0  0  0  0  0  0  0  0  0  0  0
   10.4410   14.4570    9.1970 C   0  0  0  0  0  0  0  0  0  0  0  0
   10.5620   13.1160    9.5350 C   0  0  0  0  0  0  0  0  0  0  0  0
   10.6650   15.4050   10.1810 C   0  0  0  0  0  0  0  0  0  0  0  0
   10.9190   12.7360   10.8230 C   0  0  0  0  0  0  0  0  0  0  0  0
   10.9960   15.0370   11.4550 C   0  0  0  0  0  0  0  0  0  0  0  0
   11.1350   13.7090   11.7720 C   0  0  0  0  0  0  0  0  0  0  0  0
   11.4820   13.3480   13.0460 O   0  0  0  0  0  0  0  0  0  0  0  0
   10.3180   15.3380    4.6160 N   0  0  0  0  0  0  0  0  0  0  0  0
    9.6210   15.5080    3.3400 C   0  0  0  0  0  0  0  0  0  0  0  0
    8.1170   15.4620    3.4640 C   0  0  0  0  0  0  0  0  0  0  0  0
    7.4430   14.8640    2.6150 O   0  0  0  0  0  0  0  0  0  0  0  0
    7.5780   16.0230    4.5490 N   0  0  0  0  0  0  0  0  0  0  0  0
    6.1740   15.8470    4.8840 C   0  0  2  0  0  0  0  0  0  0  0  0
    5.2980   16.5510    3.8780 C   0  0  0  0  0  0  0  0  0  0  0  0
    5.7220   17.4930    3.2310 O   0  0  0  0  0  0  0  0  0  0  0  0
    5.8790   16.3890    6.2660 C   0  0  0  0  0  0  0  0  0  0  0  0
    6.2130   15.4370    7.3430 C   0  0  0  0  0  0  0  0  0  0  0  0
    5.8940   14.1000    7.2060 C   0  0  0  0  0  0  0  0  0  0  0  0
    6.8430   15.8600    8.4860 C   0  0  0  0  0  0  0  0  0  0  0  0
    6.1920   13.2110    8.2060 C   0  0  0  0  0  0  0  0  0  0  0  0
    7.1290   14.9700    9.4880 C   0  0  0  0  0  0  0  0  0  0  0  0
    6.8290   13.6520    9.3450 C   0  0  0  0  0  0  0  0  0  0  0  0
    4.0630   16.0790    3.7480 N   0  0  0  0  0  0  0  0  0  0  0  0
    3.1540   16.5750    2.7260 C   0  0  2  0  0  0  0  0  0  0  0  0
    1.7200   16.2020    3.1350 C   0  0  0  0  0  0  0  0  0  0  0  0
    1.5240   15.2980    3.9520 O   0  0  0  0  0  0  0  0  0  0  0  0
    3.5440   16.0050    1.3460 C   0  0  0  0  0  0  0  0  0  0  0  0
    4.6120   16.7730    0.5150 C   0  0  0  0  0  0  0  0  0  0  0  0
    5.2000   15.9820   -0.6480 C   0  0  0  0  0  0  0  0  0  0  0  0
    5.7980   14.9300   -0.4690 O   0  0  0  0  0  0  0  0  0  0  0  0
    5.0600   16.5120   -1.8410 N   0  0  0  0  0  0  0  0  0  0  0  0
  2  1  1  0
  3  2  1  0
  4  3  2  0
  5  3  1  0
  6  5  1  0
  7  6  1  0
  8  7  2  0
  9  7  1  0
 10  9  1  0
 11 10  1  0
 12 11  2  0
 10 13  1  1
 14 13  1  0
 15 14  2  0
 16 14  1  0
 17 11  1  0
 18 17  1  0
 19 18  1  0
 20 19  2  0
 18 21  1  6
 22 21  1  0
 23 22  2  0
 24 22  1  0
 25 23  1  0
 26 24  2  0
 27 26  1  0
 27 25  2  0
 28 27  1  0
 30 29  1  6
 31 30  1  0
 32 31  2  0
 33 30  1  0
 34 33  1  0
 35 34  2  0
 36 34  1  0
 37 35  1  0
 38 36  2  0
 39 38  1  0
 39 37  2  0
 40 39  1  0
 42 41  1  6
 43 42  1  0
 44 43  2  0
 45 42  1  0
 46 45  1  0
 47 46  1  0
 48 47  2  0
 49 47  1  0
 50 43  1  0
 51 50  1  0
 52 51  1  0
 53 52  2  0
 55 54  1  6
 56 55  1  0
 57 56  2  0
 58 55  1  0
 59 58  1  0
 60 56  1  0
 61 60  1  0
 62 61  1  0
 63 62  2  0
 61 64  1  1
 65 64  1  0
 66 65  2  0
 67 65  1  0
 68 66  1  0
 69 67  2  0
 70 68  2  0
 70 69  1  0
 71 70  1  0
 72 62  1  0
 73 72  1  0
 74 73  1  0
 75 74  2  0
 73 76  1  6
 77 76  1  0
 78 77  2  0
 79 77  1  0
 80 78  1  0
 81 79  2  0
 82 81  1  0
 82 80  2  0
 84 83  1  1
 85 84  1  0
 86 85  2  0
 87 84  1  0
 88 87  1  0
 89 88  1  0
 90 89  2  0
 91 89  1  0
 92 85  1  0
 93 92  1  0
 94 93  1  0
 95 94  2  0
 93 96  1  6
 97 96  1  0
 98 94  1  0
 99 98  1  0
100 99  1  0
101100  2  0
 99102  1  1
103102  1  0
104103  2  0
105103  1  0
106104  1  0
107105  2  0
108106  2  0
108107  1  0
109108  1  0
110100  1  0
111110  1  0
112111  1  0
113112  2  0
114112  1  0
115114  1  0
116115  1  0
117116  2  0
115118  1  1
119118  1  0
120119  2  0
121119  1  0
122120  1  0
123121  2  0
124123  1  0
124122  2  0
125116  1  0
126125  1  0
127126  1  0
128127  2  0
126129  1  6
130129  1  0
131130  1  0
132131  2  0
133131  1  0
M  END
$$$$
