
     RDKit          3D

100 92  0  0  0  0  0  0  0  0999 V2000
  159.4640  197.7750  192.9140 N   0  0  0  0  0  0  0  0  0  0  0  0
  159.7120  196.6310  193.7890 C   0  0  2  0  0  0  0  0  0  0  0  0
  159.4900  197.0170  195.2450 C   0  0  0  0  0  0  0  0  0  0  0  0
  158.9640  196.2250  196.0360 O   0  0  0  0  0  0  0  0  0  0  0  0
  161.1240  196.0570  193.5580 C   0  0  0  0  0  0  0  0  0  0  0  0
  161.2600  195.5480  192.1360 C   0  0  0  0  0  0  0  0  0  0  0  0
  162.1930  197.0840  193.8590 C   0  0  0  0  0  0  0  0  0  0  0  0
  156.8460  195.3380  197.2330 N   0  0  0  0  0  0  0  0  0  0  0  0
  157.5140  194.3860  198.0990 C   0  0  0  0  0  0  0  0  0  0  0  0
  158.0810  193.1870  197.3700 C   0  0  0  0  0  0  0  0  0  0  0  0
  157.8960  192.0470  197.8050 O   0  0  0  0  0  0  0  0  0  0  0  0
  158.7760  193.4260  196.2610 N   0  0  0  0  0  0  0  0  0  0  0  0
  159.3500  192.3570  195.4560 C   0  0  2  0  0  0  0  0  0  0  0  0
  160.7870  192.0240  195.8320 C   0  0  0  0  0  0  0  0  0  0  0  0
  161.3960  191.1720  195.1780 O   0  0  0  0  0  0  0  0  0  0  0  0
  159.2910  192.7270  193.9720 C   0  0  0  0  0  0  0  0  0  0  0  0
  157.8850  192.8720  193.4190 C   0  0  0  0  0  0  0  0  0  0  0  0
  157.1450  191.5460  193.4090 C   0  0  0  0  0  0  0  0  0  0  0  0
  156.4900  191.2730  194.6820 N   0  0  0  0  0  0  0  0  0  0  0  0
  156.1850  190.0620  195.1270 C   0  0  0  0  0  0  0  0  0  0  0  0
  156.4660  188.9750  194.4270 N   0  0  0  0  0  0  0  0  0  0  0  0
  155.5820  189.9370  196.3060 N   0  0  0  0  0  0  0  0  0  0  0  0
  161.3480  192.6650  196.8530 N   0  0  0  0  0  0  0  0  0  0  0  0
  162.7270  192.3890  197.2200 C   0  0  2  0  0  0  0  0  0  0  0  0
  162.8740  190.9580  197.7270 C   0  0  0  0  0  0  0  0  0  0  0  0
  161.9060  190.2990  198.1110 O   0  0  0  0  0  0  0  0  0  0  0  0
  163.2130  193.3750  198.2840 C   0  0  0  0  0  0  0  0  0  0  0  0
  163.8270  194.9440  197.6220 S   0  0  0  0  0  0  0  0  0  0  0  0
  164.1170  190.4800  197.7150 N   0  0  0  0  0  0  0  0  0  0  0  0
  164.4720  189.1430  198.1820 C   0  0  2  0  0  0  0  0  0  0  0  0
  163.8650  188.0430  197.3180 C   0  0  0  0  0  0  0  0  0  0  0  0
  163.7030  186.9080  197.7780 O   0  0  0  0  0  0  0  0  0  0  0  0
  164.0660  188.9430  199.6460 C   0  0  0  0  0  0  0  0  0  0  0  0
  164.7200  189.9210  200.6060 C   0  0  0  0  0  0  0  0  0  0  0  0
  166.1470  189.5400  200.9380 C   0  0  0  0  0  0  0  0  0  0  0  0
  166.3910  188.5830  201.6700 O   0  0  0  0  0  0  0  0  0  0  0  0
  167.1000  190.2890  200.3960 N   0  0  0  0  0  0  0  0  0  0  0  0
  163.5210  188.3500  196.0690 N   0  0  0  0  0  0  0  0  0  0  0  0
  163.0220  187.3400  195.1480 C   0  0  2  0  0  0  0  0  0  0  0  0
  163.3480  187.7660  193.7240 C   0  0  0  0  0  0  0  0  0  0  0  0
  163.5210  188.9520  193.4340 O   0  0  0  0  0  0  0  0  0  0  0  0
  161.5150  187.1190  195.3230 C   0  0  0  0  0  0  0  0  0  0  0  0
  160.9600  185.9670  194.5000 C   0  0  0  0  0  0  0  0  0  0  0  0
  161.6090  184.3700  195.0220 S   0  0  0  0  0  0  0  0  0  0  0  0
  161.3900  183.4160  193.5240 C   0  0  0  0  0  0  0  0  0  0  0  0
  172.0000  187.7740  203.7520 N   0  0  0  0  0  0  0  0  0  0  0  0
  172.7540  188.3310  204.8620 C   0  0  2  0  0  0  0  0  0  0  0  0
  173.5820  187.2430  205.5280 C   0  0  0  0  0  0  0  0  0  0  0  0
  173.0300  186.1930  205.8810 O   0  0  0  0  0  0  0  0  0  0  0  0
  171.8130  188.9650  205.8900 C   0  0  2  0  0  0  0  0  0  0  0  0
  171.0520  190.0060  205.2660 O   0  0  0  0  0  0  0  0  0  0  0  0
  172.6040  189.5500  207.0520 C   0  0  0  0  0  0  0  0  0  0  0  0
  164.1620  201.1120  215.9870 N   0  0  0  0  0  0  0  0  0  0  0  0
  164.0400  199.6880  215.7020 C   0  0  2  0  0  0  0  0  0  0  0  0
  162.9350  199.0630  216.5420 C   0  0  0  0  0  0  0  0  0  0  0  0
  163.0690  197.9500  217.0530 O   0  0  0  0  0  0  0  0  0  0  0  0
  165.3680  198.9750  215.9360 C   0  0  0  0  0  0  0  0  0  0  0  0
  166.4470  199.3830  214.9560 C   0  0  0  0  0  0  0  0  0  0  0  0
  167.7460  198.6430  215.2050 C   0  0  0  0  0  0  0  0  0  0  0  0
  168.5730  198.5840  214.0060 N   0  0  0  0  0  0  0  0  0  0  0  0
  168.3560  197.7660  212.9850 C   0  0  0  0  0  0  0  0  0  0  0  0
  167.3450  196.9140  212.9830 N   0  0  0  0  0  0  0  0  0  0  0  0
  169.1750  197.8050  211.9380 N   0  0  0  0  0  0  0  0  0  0  0  0
  157.0330  197.3750  205.4780 N   0  0  0  0  0  0  0  0  0  0  0  0
  158.0330  196.6240  204.7270 C   0  0  2  0  0  0  0  0  0  0  0  0
  159.0940  197.5530  204.1490 C   0  0  0  0  0  0  0  0  0  0  0  0
  160.2880  197.2330  204.1610 O   0  0  0  0  0  0  0  0  0  0  0  0
  157.3570  195.8200  203.6170 C   0  0  0  0  0  0  0  0  0  0  0  0
  158.3070  195.0680  202.8840 O   0  0  0  0  0  0  0  0  0  0  0  0
  161.4010  198.6600  206.8990 N   0  0  0  0  0  0  0  0  0  0  0  0
  162.2910  197.5740  207.2980 C   0  0  2  0  0  0  0  0  0  0  0  0
  163.4030  197.3750  206.2760 C   0  0  0  0  0  0  0  0  0  0  0  0
  164.5740  197.2170  206.6370 O   0  0  0  0  0  0  0  0  0  0  0  0
  161.4890  196.2870  207.4840 C   0  0  0  0  0  0  0  0  0  0  0  0
  160.4530  196.4740  208.4310 O   0  0  0  0  0  0  0  0  0  0  0  0
  163.0550  197.3900  204.9890 N   0  0  0  0  0  0  0  0  0  0  0  0
  164.0500  197.1490  203.9490 C   0  0  2  0  0  0  0  0  0  0  0  0
  165.1010  198.2510  203.9230 C   0  0  0  0  0  0  0  0  0  0  0  0
  166.3050  197.9760  203.8880 O   0  0  0  0  0  0  0  0  0  0  0  0
  163.3670  197.0310  202.5870 C   0  0  2  0  0  0  0  0  0  0  0  0
  162.4300  198.1010  202.4250 O   0  0  0  0  0  0  0  0  0  0  0  0
  162.6420  195.7010  202.4680 C   0  0  0  0  0  0  0  0  0  0  0  0
  171.3560  198.0930  208.6290 N   0  0  0  0  0  0  0  0  0  0  0  0
  171.4370  196.8160  209.3240 C   0  0  2  0  0  0  0  0  0  0  0  0
  172.6080  196.7430  210.2970 C   0  0  0  0  0  0  0  0  0  0  0  0
  172.9790  195.6440  210.7230 O   0  0  0  0  0  0  0  0  0  0  0  0
  171.5380  195.6820  208.3050 C   0  0  0  0  0  0  0  0  0  0  0  0
  172.6880  195.8340  207.4910 O   0  0  0  0  0  0  0  0  0  0  0  0
  170.6230  193.3370  217.4040 N   0  0  0  0  0  0  0  0  0  0  0  0
  169.5830  193.6480  216.4350 C   0  0  2  0  0  0  0  0  0  0  0  0
  168.5640  192.5180  216.4050 C   0  0  0  0  0  0  0  0  0  0  0  0
  168.9260  191.3410  216.3210 O   0  0  0  0  0  0  0  0  0  0  0  0
  170.1910  193.8590  215.0500 C   0  0  0  0  0  0  0  0  0  0  0  0
  171.3040  194.9060  214.9580 C   0  0  0  0  0  0  0  0  0  0  0  0
  171.8540  194.9750  213.5440 C   0  0  0  0  0  0  0  0  0  0  0  0
  170.8050  196.2700  215.4090 C   0  0  0  0  0  0  0  0  0  0  0  0
  167.2870  192.8790  216.4730 N   0  0  0  0  0  0  0  0  0  0  0  0
  166.2130  191.9080  216.5960 C   0  0  0  0  0  0  0  0  0  0  0  0
  165.3460  192.0910  217.8240 C   0  0  0  0  0  0  0  0  0  0  0  0
  164.3760  191.3390  217.9900 O   0  0  0  0  0  0  0  0  0  0  0  0
  2  1  1  6
  3  2  1  0
  4  3  2  0
  5  2  1  0
  6  5  1  0
  7  5  1  0
  9  8  1  0
 10  9  1  0
 11 10  2  0
 12 10  1  0
 13 12  1  0
 14 13  1  0
 15 14  2  0
 13 16  1  6
 17 16  1  0
 18 17  1  0
 19 18  1  0
 20 19  1  0
 21 20  1  0
 22 20  2  0
 23 14  1  0
 24 23  1  0
 25 24  1  0
 26 25  2  0
 24 27  1  1
 28 27  1  0
 29 25  1  0
 30 29  1  0
 31 30  1  0
 32 31  2  0
 30 33  1  1
 34 33  1  0
 35 34  1  0
 36 35  2  0
 37 35  1  0
 38 31  1  0
 39 38  1  0
 40 39  1  0
 41 40  2  0
 39 42  1  6
 43 42  1  0
 44 43  1  0
 45 44  1  0
 47 46  1  6
 48 47  1  0
 49 48  2  0
 50 47  1  0
 51 50  1  0
 50 52  1  1
 54 53  1  1
 55 54  1  0
 56 55  2  0
 57 54  1  0
 58 57  1  0
 59 58  1  0
 60 59  1  0
 61 60  1  0
 62 61  1  0
 63 61  2  0
 65 64  1  6
 66 65  1  0
 67 66  2  0
 68 65  1  0
 69 68  1  0
 71 70  1  6
 72 71  1  0
 73 72  2  0
 74 71  1  0
 75 74  1  0
 76 72  1  0
 77 76  1  1
 78 77  1  0
 79 78  2  0
 80 77  1  0
 81 80  1  0
 80 82  1  1
 84 83  1  6
 85 84  1  0
 86 85  2  0
 87 84  1  0
 88 87  1  0
 90 89  1  1
 91 90  1  0
 92 91  2  0
 93 90  1  0
 94 93  1  0
 95 94  1  0
 96 94  1  0
 97 91  1  0
 98 97  1  0
 99 98  1  0
100 99  2  0
M  END
$$$$
