
     RDKit          3D

107 99  0  0  0  0  0  0  0  0999 V2000
  157.5630  192.6600  191.5400 N   0  0  0  0  0  0  0  0  0  0  0  0
  157.7810  191.4970  192.3970 C   0  0  2  0  0  0  0  0  0  0  0  0
  157.5630  191.8620  193.8600 C   0  0  0  0  0  0  0  0  0  0  0  0
  156.9960  191.0770  194.6270 O   0  0  0  0  0  0  0  0  0  0  0  0
  159.1780  190.8890  192.1600 C   0  0  0  0  0  0  0  0  0  0  0  0
  159.3060  190.3980  190.7320 C   0  0  0  0  0  0  0  0  0  0  0  0
  160.2800  191.8790  192.4780 C   0  0  0  0  0  0  0  0  0  0  0  0
  154.6310  190.1610  195.9470 N   0  0  0  0  0  0  0  0  0  0  0  0
  155.1930  189.1520  196.8250 C   0  0  0  0  0  0  0  0  0  0  0  0
  155.7800  187.9650  196.0900 C   0  0  0  0  0  0  0  0  0  0  0  0
  155.5470  186.8150  196.4730 O   0  0  0  0  0  0  0  0  0  0  0  0
  156.5480  188.2290  195.0360 N   0  0  0  0  0  0  0  0  0  0  0  0
  157.1450  187.1820  194.2200 C   0  0  2  0  0  0  0  0  0  0  0  0
  158.6140  186.9440  194.5430 C   0  0  0  0  0  0  0  0  0  0  0  0
  159.3010  186.2600  193.7800 O   0  0  0  0  0  0  0  0  0  0  0  0
  156.9880  187.5220  192.7360 C   0  0  0  0  0  0  0  0  0  0  0  0
  155.5440  187.6110  192.2620 C   0  0  0  0  0  0  0  0  0  0  0  0
  154.7420  186.3760  192.6330 C   0  0  0  0  0  0  0  0  0  0  0  0
  155.4650  185.1450  192.3420 N   0  0  0  0  0  0  0  0  0  0  0  0
  155.2090  183.9720  192.9040 C   0  0  0  0  0  0  0  0  0  0  0  0
  154.2480  183.8290  193.8020 N   0  0  0  0  0  0  0  0  0  0  0  0
  155.9370  182.9150  192.5580 N   0  0  0  0  0  0  0  0  0  0  0  0
  159.1120  187.4880  195.6500 N   0  0  0  0  0  0  0  0  0  0  0  0
  160.5030  187.2810  196.0140 C   0  0  2  0  0  0  0  0  0  0  0  0
  160.7320  185.8450  196.4760 C   0  0  0  0  0  0  0  0  0  0  0  0
  159.8010  185.1200  196.8350 O   0  0  0  0  0  0  0  0  0  0  0  0
  160.9200  188.2520  197.1180 C   0  0  0  0  0  0  0  0  0  0  0  0
  160.4650  189.9720  196.8110 S   0  0  0  0  0  0  0  0  0  0  0  0
  162.0010  185.4370  196.4540 N   0  0  0  0  0  0  0  0  0  0  0  0
  162.4460  184.1230  196.9070 C   0  0  2  0  0  0  0  0  0  0  0  0
  161.9100  182.9840  196.0500 C   0  0  0  0  0  0  0  0  0  0  0  0
  161.8830  181.8340  196.4970 O   0  0  0  0  0  0  0  0  0  0  0  0
  162.0670  183.8850  198.3740 C   0  0  0  0  0  0  0  0  0  0  0  0
  162.8120  184.7710  199.3510 C   0  0  0  0  0  0  0  0  0  0  0  0
  164.2530  184.3470  199.5320 C   0  0  0  0  0  0  0  0  0  0  0  0
  164.5330  183.2690  200.0530 O   0  0  0  0  0  0  0  0  0  0  0  0
  165.1770  185.1940  199.1010 N   0  0  0  0  0  0  0  0  0  0  0  0
  161.4810  183.2680  194.8230 N   0  0  0  0  0  0  0  0  0  0  0  0
  161.0370  182.2220  193.9160 C   0  0  2  0  0  0  0  0  0  0  0  0
  161.3910  182.6130  192.4910 C   0  0  0  0  0  0  0  0  0  0  0  0
  161.6080  183.7870  192.1820 O   0  0  0  0  0  0  0  0  0  0  0  0
  159.5290  181.9690  194.0340 C   0  0  0  0  0  0  0  0  0  0  0  0
  159.0400  180.7140  193.3140 C   0  0  0  0  0  0  0  0  0  0  0  0
  160.1020  179.2680  193.5200 S   0  0  0  0  0  0  0  0  0  0  0  0
  159.3660  178.1340  192.3480 C   0  0  0  0  0  0  0  0  0  0  0  0
  170.3880  182.2280  202.5260 N   0  0  0  0  0  0  0  0  0  0  0  0
  170.9720  182.8750  203.6940 C   0  0  2  0  0  0  0  0  0  0  0  0
  171.7870  181.8260  204.4390 C   0  0  0  0  0  0  0  0  0  0  0  0
  171.2250  180.7930  204.8550 O   0  0  0  0  0  0  0  0  0  0  0  0
  169.8940  183.4750  204.5990 C   0  0  2  0  0  0  0  0  0  0  0  0
  169.0830  184.3830  203.8440 O   0  0  0  0  0  0  0  0  0  0  0  0
  170.5300  184.2200  205.7630 C   0  0  0  0  0  0  0  0  0  0  0  0
  162.2240  195.4980  214.8000 N   0  0  0  0  0  0  0  0  0  0  0  0
  162.0870  194.0600  214.6020 C   0  0  2  0  0  0  0  0  0  0  0  0
  160.8500  193.5100  215.3040 C   0  0  0  0  0  0  0  0  0  0  0  0
  160.8410  192.3590  215.7410 O   0  0  0  0  0  0  0  0  0  0  0  0
  163.3370  193.3300  215.0910 C   0  0  0  0  0  0  0  0  0  0  0  0
  164.6140  193.7110  214.3670 C   0  0  0  0  0  0  0  0  0  0  0  0
  164.8450  192.8220  213.1640 C   0  0  0  0  0  0  0  0  0  0  0  0
  166.1110  193.1100  212.5040 N   0  0  0  0  0  0  0  0  0  0  0  0
  166.6610  192.3410  211.5750 C   0  0  0  0  0  0  0  0  0  0  0  0
  166.0790  191.2260  211.1650 N   0  0  0  0  0  0  0  0  0  0  0  0
  167.8230  192.7020  211.0400 N   0  0  0  0  0  0  0  0  0  0  0  0
  155.0080  192.1670  204.2330 N   0  0  0  0  0  0  0  0  0  0  0  0
  155.9870  191.4070  203.4650 C   0  0  2  0  0  0  0  0  0  0  0  0
  157.0720  192.3180  202.9080 C   0  0  0  0  0  0  0  0  0  0  0  0
  158.2590  191.9750  202.9450 O   0  0  0  0  0  0  0  0  0  0  0  0
  155.2890  190.6500  202.3370 C   0  0  0  0  0  0  0  0  0  0  0  0
  156.1140  189.6140  201.8350 O   0  0  0  0  0  0  0  0  0  0  0  0
  159.4200  193.4040  205.6580 N   0  0  0  0  0  0  0  0  0  0  0  0
  160.3250  192.3240  206.0330 C   0  0  2  0  0  0  0  0  0  0  0  0
  161.4090  192.1220  204.9810 C   0  0  0  0  0  0  0  0  0  0  0  0
  162.5810  191.9210  205.3180 O   0  0  0  0  0  0  0  0  0  0  0  0
  159.5330  191.0370  206.2480 C   0  0  0  0  0  0  0  0  0  0  0  0
  160.3460  190.0320  206.8220 O   0  0  0  0  0  0  0  0  0  0  0  0
  161.0390  192.1750  203.7000 N   0  0  0  0  0  0  0  0  0  0  0  0
  162.0070  191.9210  202.6380 C   0  0  2  0  0  0  0  0  0  0  0  0
  163.0630  193.0150  202.5670 C   0  0  0  0  0  0  0  0  0  0  0  0
  164.2550  192.7240  202.4180 O   0  0  0  0  0  0  0  0  0  0  0  0
  161.2920  191.7940  201.2930 C   0  0  2  0  0  0  0  0  0  0  0  0
  160.2780  190.7870  201.3790 O   0  0  0  0  0  0  0  0  0  0  0  0
  162.2790  191.4230  200.1980 C   0  0  0  0  0  0  0  0  0  0  0  0
  169.3920  192.7050  207.2230 N   0  0  0  0  0  0  0  0  0  0  0  0
  169.4000  191.4160  207.9020 C   0  0  2  0  0  0  0  0  0  0  0  0
  170.5830  191.2600  208.8530 C   0  0  0  0  0  0  0  0  0  0  0  0
  171.0880  190.1520  209.0410 O   0  0  0  0  0  0  0  0  0  0  0  0
  169.4000  190.2890  206.8710 C   0  0  0  0  0  0  0  0  0  0  0  0
  170.5850  190.3100  206.0960 O   0  0  0  0  0  0  0  0  0  0  0  0
  171.0380  192.3520  209.4630 N   0  0  0  0  0  0  0  0  0  0  0  0
  172.1680  192.2570  210.3760 C   0  0  2  0  0  0  0  0  0  0  0  0
  172.2050  193.4740  211.2870 C   0  0  0  0  0  0  0  0  0  0  0  0
  171.6170  194.5180  210.9940 O   0  0  0  0  0  0  0  0  0  0  0  0
  173.4910  192.1320  209.6130 C   0  0  2  0  0  0  0  0  0  0  0  0
  174.5190  191.6820  210.5040 O   0  0  0  0  0  0  0  0  0  0  0  0
  173.8920  193.4720  209.0120 C   0  0  0  0  0  0  0  0  0  0  0  0
  168.6920  187.7380  215.9060 N   0  0  0  0  0  0  0  0  0  0  0  0
  167.6460  188.0830  214.9550 C   0  0  2  0  0  0  0  0  0  0  0  0
  166.6030  186.9750  214.9170 C   0  0  0  0  0  0  0  0  0  0  0  0
  166.9340  185.7870  214.8910 O   0  0  0  0  0  0  0  0  0  0  0  0
  168.2410  188.3060  213.5650 C   0  0  0  0  0  0  0  0  0  0  0  0
  169.3830  189.3210  213.4860 C   0  0  0  0  0  0  0  0  0  0  0  0
  169.7780  189.5560  212.0400 C   0  0  0  0  0  0  0  0  0  0  0  0
  168.9970  190.6290  214.1560 C   0  0  0  0  0  0  0  0  0  0  0  0
  165.3340  187.3730  214.9170 N   0  0  0  0  0  0  0  0  0  0  0  0
  164.2320  186.4480  215.0930 C   0  0  0  0  0  0  0  0  0  0  0  0
  163.4710  186.6400  216.3850 C   0  0  0  0  0  0  0  0  0  0  0  0
  162.5600  185.8530  216.6680 O   0  0  0  0  0  0  0  0  0  0  0  0
  2  1  1  6
  3  2  1  0
  4  3  2  0
  5  2  1  0
  6  5  1  0
  7  5  1  0
  9  8  1  0
 10  9  1  0
 11 10  2  0
 12 10  1  0
 13 12  1  0
 14 13  1  0
 15 14  2  0
 13 16  1  6
 17 16  1  0
 18 17  1  0
 19 18  1  0
 20 19  1  0
 21 20  1  0
 22 20  2  0
 23 14  1  0
 24 23  1  0
 25 24  1  0
 26 25  2  0
 24 27  1  1
 28 27  1  0
 29 25  1  0
 30 29  1  0
 31 30  1  0
 32 31  2  0
 30 33  1  1
 34 33  1  0
 35 34  1  0
 36 35  2  0
 37 35  1  0
 38 31  1  0
 39 38  1  0
 40 39  1  0
 41 40  2  0
 39 42  1  6
 43 42  1  0
 44 43  1  0
 45 44  1  0
 47 46  1  6
 48 47  1  0
 49 48  2  0
 50 47  1  0
 51 50  1  0
 50 52  1  1
 54 53  1  1
 55 54  1  0
 56 55  2  0
 57 54  1  0
 58 57  1  0
 59 58  1  0
 60 59  1  0
 61 60  1  0
 62 61  1  0
 63 61  2  0
 65 64  1  6
 66 65  1  0
 67 66  2  0
 68 65  1  0
 69 68  1  0
 71 70  1  6
 72 71  1  0
 73 72  2  0
 74 71  1  0
 75 74  1  0
 76 72  1  0
 77 76  1  1
 78 77  1  0
 79 78  2  0
 80 77  1  0
 81 80  1  0
 80 82  1  6
 84 83  1  6
 85 84  1  0
 86 85  2  0
 87 84  1  0
 88 87  1  0
 89 85  1  0
 90 89  1  6
 91 90  1  0
 92 91  2  0
 93 90  1  0
 94 93  1  0
 93 95  1  1
 97 96  1  1
 98 97  1  0
 99 98  2  0
100 97  1  0
101100  1  0
102101  1  0
103101  1  0
104 98  1  0
105104  1  0
106105  1  0
107106  2  0
M  END
$$$$
