
     RDKit          3D

129125  0  0  0  0  0  0  0  0999 V2000
  194.5300  133.7630  164.3360 N   0  0  0  0  0  0  0  0  0  0  0  0
  193.6300  133.7040  165.4990 C   0  0  2  0  0  0  0  0  0  0  0  0
  193.0050  135.0280  165.9400 C   0  0  0  0  0  0  0  0  0  0  0  0
  191.9060  135.0240  166.4790 O   0  0  0  0  0  0  0  0  0  0  0  0
  194.4060  133.1570  166.7020 C   0  0  0  0  0  0  0  0  0  0  0  0
  194.9570  131.7730  166.5070 C   0  0  0  0  0  0  0  0  0  0  0  0
  194.8250  131.1530  165.4640 O   0  0  0  0  0  0  0  0  0  0  0  0
  195.5900  131.2490  167.5230 N   0  0  0  0  0  0  0  0  0  0  0  0
  193.6770  136.1610  165.7540 N   0  0  0  0  0  0  0  0  0  0  0  0
  193.1350  137.4530  166.1610 C   0  0  2  0  0  0  0  0  0  0  0  0
  191.8840  137.8630  165.3570 C   0  0  0  0  0  0  0  0  0  0  0  0
  191.1240  138.7200  165.8070 O   0  0  0  0  0  0  0  0  0  0  0  0
  194.2520  138.4910  166.0570 C   0  0  0  0  0  0  0  0  0  0  0  0
  191.6410  137.2610  164.1850 N   0  0  0  0  0  0  0  0  0  0  0  0
  190.4200  137.4560  163.3920 C   0  0  2  0  0  0  0  0  0  0  0  0
  189.2880  136.5620  163.8960 C   0  0  0  0  0  0  0  0  0  0  0  0
  189.4690  135.3620  164.0750 O   0  0  0  0  0  0  0  0  0  0  0  0
  190.7020  137.1570  161.9130 C   0  0  0  0  0  0  0  0  0  0  0  0
  191.1760  138.3670  161.1050 C   0  0  0  0  0  0  0  0  0  0  0  0
  192.4720  139.0320  161.5770 C   0  0  0  0  0  0  0  0  0  0  0  0
  192.8460  140.0850  160.5250 C   0  0  0  0  0  0  0  0  0  0  0  0
  194.1670  140.7120  160.7790 N   0  0  0  0  0  0  0  0  0  0  0  0
  188.0960  137.1300  164.0530 N   0  0  0  0  0  0  0  0  0  0  0  0
  186.8910  136.3660  164.3570 C   0  0  2  0  0  0  0  0  0  0  0  0
  186.5450  135.3710  163.2470 C   0  0  0  0  0  0  0  0  0  0  0  0
  186.9110  135.5500  162.0850 O   0  0  0  0  0  0  0  0  0  0  0  0
  185.7170  137.3260  164.6140 C   0  0  0  0  0  0  0  0  0  0  0  0
  185.7960  137.9920  165.9710 C   0  0  0  0  0  0  0  0  0  0  0  0
  186.4900  137.5370  166.8650 O   0  0  0  0  0  0  0  0  0  0  0  0
  185.0830  139.0650  166.1910 N   0  0  0  0  0  0  0  0  0  0  0  0
  183.6810  127.7370  177.1940 N   0  0  0  0  0  0  0  0  0  0  0  0
  183.0620  129.0120  177.5490 C   0  0  2  0  0  0  0  0  0  0  0  0
  184.0320  130.1970  177.4120 C   0  0  0  0  0  0  0  0  0  0  0  0
  185.2280  130.0200  177.2030 O   0  0  0  0  0  0  0  0  0  0  0  0
  182.4370  128.8650  178.9410 C   0  0  0  0  0  0  0  0  0  0  0  0
  183.4210  128.6000  180.0610 C   0  0  0  0  0  0  0  0  0  0  0  0
  184.6210  128.4820  179.8550 O   0  0  0  0  0  0  0  0  0  0  0  0
  182.8900  128.5310  181.2700 N   0  0  0  0  0  0  0  0  0  0  0  0
  183.5320  131.4290  177.4930 N   0  0  0  0  0  0  0  0  0  0  0  0
  184.3280  132.6360  177.2160 C   0  0  2  0  0  0  0  0  0  0  0  0
  185.2860  132.9920  178.3500 C   0  0  0  0  0  0  0  0  0  0  0  0
  184.9790  133.8130  179.2040 O   0  0  0  0  0  0  0  0  0  0  0  0
  183.4090  133.8120  176.9020 C   0  0  0  0  0  0  0  0  0  0  0  0
  182.6340  133.4860  175.7690 O   0  0  0  0  0  0  0  0  0  0  0  0
  186.4480  132.3560  178.3740 N   0  0  0  0  0  0  0  0  0  0  0  0
  187.4180  132.4510  179.4610 C   0  0  2  0  0  0  0  0  0  0  0  0
  187.9180  133.8700  179.7240 C   0  0  0  0  0  0  0  0  0  0  0  0
  188.4760  134.5100  178.8350 O   0  0  0  0  0  0  0  0  0  0  0  0
  188.6210  131.5620  179.1370 C   0  0  0  0  0  0  0  0  0  0  0  0
  188.1770  130.2520  178.8200 O   0  0  0  0  0  0  0  0  0  0  0  0
  187.8260  134.2990  180.9850 N   0  0  0  0  0  0  0  0  0  0  0  0
  188.4940  135.4870  181.5330 C   0  0  0  0  0  0  0  0  0  0  0  0
  187.8860  136.8370  181.1730 C   0  0  0  0  0  0  0  0  0  0  0  0
  186.9420  136.9400  180.3960 O   0  0  0  0  0  0  0  0  0  0  0  0
  188.4470  137.8900  181.7600 N   0  0  0  0  0  0  0  0  0  0  0  0
  187.9450  139.2540  181.6240 C   0  0  0  0  0  0  0  0  0  0  0  0
  186.7870  139.5730  182.5710 C   0  0  0  0  0  0  0  0  0  0  0  0
  186.5900  138.9170  183.5920 O   0  0  0  0  0  0  0  0  0  0  0  0
  182.3300  140.5640  178.4030 N   0  0  0  0  0  0  0  0  0  0  0  0
  183.0050  139.5710  177.5480 C   0  0  2  0  0  0  0  0  0  0  0  0
  182.7250  138.1360  177.9900 C   0  0  0  0  0  0  0  0  0  0  0  0
  182.4990  137.2710  177.1460 O   0  0  0  0  0  0  0  0  0  0  0  0
  184.5020  139.8610  177.4230 C   0  0  0  0  0  0  0  0  0  0  0  0
  185.2490  139.8100  178.7530 C   0  0  0  0  0  0  0  0  0  0  0  0
  185.1620  138.8660  176.4730 C   0  0  0  0  0  0  0  0  0  0  0  0
  185.9620  132.5320  168.2750 N   0  0  0  0  0  0  0  0  0  0  0  0
  187.3920  132.8190  168.2380 C   0  0  2  0  0  0  0  0  0  0  0  0
  188.1400  131.5140  168.4560 C   0  0  0  0  0  0  0  0  0  0  0  0
  187.6640  130.6530  169.1940 O   0  0  0  0  0  0  0  0  0  0  0  0
  187.7450  133.8670  169.2890 C   0  0  2  0  0  0  0  0  0  0  0  0
  186.8840  134.9760  169.2010 O   0  0  0  0  0  0  0  0  0  0  0  0
  189.1470  134.4210  169.1220 C   0  0  0  0  0  0  0  0  0  0  0  0
  189.2670  131.3190  167.7760 N   0  0  0  0  0  0  0  0  0  0  0  0
  190.0750  130.0950  167.8400 C   0  0  2  0  0  0  0  0  0  0  0  0
  191.2480  130.2660  168.7990 C   0  0  0  0  0  0  0  0  0  0  0  0
  191.6500  131.3880  169.0860 O   0  0  0  0  0  0  0  0  0  0  0  0
  190.5560  129.7690  166.4180 C   0  0  0  0  0  0  0  0  0  0  0  0
  190.9620  128.2990  166.2360 C   0  0  0  0  0  0  0  0  0  0  0  0
  191.3730  128.0080  164.7970 C   0  0  0  0  0  0  0  0  0  0  0  0
  192.6590  128.6430  164.4670 N   0  0  0  0  0  0  0  0  0  0  0  0
  193.8050  128.0390  164.2360 C   0  0  0  0  0  0  0  0  0  0  0  0
  193.9650  126.7590  164.3670 N   0  0  0  0  0  0  0  0  0  0  0  0
  194.8380  128.7250  163.8600 N   0  0  0  0  0  0  0  0  0  0  0  0
  191.8800  129.1690  169.1860 N   0  0  0  0  0  0  0  0  0  0  0  0
  193.1090  129.1590  169.9820 C   0  0  2  0  0  0  0  0  0  0  0  0
  194.2110  128.3570  169.2710 C   0  0  0  0  0  0  0  0  0  0  0  0
  193.9120  127.5030  168.4400 O   0  0  0  0  0  0  0  0  0  0  0  0
  192.8370  128.5750  171.3700 C   0  0  0  0  0  0  0  0  0  0  0  0
  191.4780  128.9430  171.9770 C   0  0  0  0  0  0  0  0  0  0  0  0
  191.0080  130.0840  171.7830 O   0  0  0  0  0  0  0  0  0  0  0  0
  190.9180  128.0960  172.7130 O   0  0  0  0  0  0  0  0  0  0  0  0
  185.8660  129.2650  171.2070 N   0  0  0  0  0  0  0  0  0  0  0  0
  185.2140  129.9720  172.3080 C   0  0  2  0  0  0  0  0  0  0  0  0
  184.2830  131.0320  171.7490 C   0  0  0  0  0  0  0  0  0  0  0  0
  184.6420  131.6350  170.7430 O   0  0  0  0  0  0  0  0  0  0  0  0
  186.3020  130.6070  173.1750 C   0  0  0  0  0  0  0  0  0  0  0  0
  186.9530  129.5660  174.0910 C   0  0  0  0  0  0  0  0  0  0  0  0
  188.2030  130.1190  174.7740 C   0  0  0  0  0  0  0  0  0  0  0  0
  188.5040  129.3650  175.9960 N   0  0  0  0  0  0  0  0  0  0  0  0
  189.1250  128.2160  176.1190 C   0  0  0  0  0  0  0  0  0  0  0  0
  189.7140  127.5960  175.1460 N   0  0  0  0  0  0  0  0  0  0  0  0
  189.1670  127.6530  177.2810 N   0  0  0  0  0  0  0  0  0  0  0  0
  183.1250  131.3140  172.3500 N   0  0  0  0  0  0  0  0  0  0  0  0
  182.2740  132.4050  171.9140 C   0  0  2  0  0  0  0  0  0  0  0  0
  183.0240  133.7160  172.0430 C   0  0  0  0  0  0  0  0  0  0  0  0
  183.5150  134.0520  173.1200 O   0  0  0  0  0  0  0  0  0  0  0  0
  181.0300  132.3810  172.7890 C   0  0  0  0  0  0  0  0  0  0  0  0
  181.0090  130.9480  173.2800 C   0  0  0  0  0  0  0  0  0  0  0  0
  182.4740  130.5640  173.3900 C   0  0  0  0  0  0  0  0  0  0  0  0
  183.1590  134.4090  170.9240 N   0  0  0  0  0  0  0  0  0  0  0  0
  184.0560  135.5430  170.7760 C   0  0  0  0  0  0  0  0  0  0  0  0
  183.4100  136.8610  171.1560 C   0  0  0  0  0  0  0  0  0  0  0  0
  182.5810  136.9430  172.0580 O   0  0  0  0  0  0  0  0  0  0  0  0
  183.7900  137.9060  170.4380 N   0  0  0  0  0  0  0  0  0  0  0  0
  183.2660  139.2510  170.6110 C   0  0  0  0  0  0  0  0  0  0  0  0
  184.1170  140.2670  169.8620 C   0  0  0  0  0  0  0  0  0  0  0  0
  184.8070  139.9350  168.8990 O   0  0  0  0  0  0  0  0  0  0  0  0
  184.0810  141.5070  170.3210 N   0  0  0  0  0  0  0  0  0  0  0  0
  184.7720  142.6360  169.7120 C   0  0  0  0  0  0  0  0  0  0  0  0
  183.9190  143.8900  169.8230 C   0  0  0  0  0  0  0  0  0  0  0  0
  182.9270  143.9230  170.5530 O   0  0  0  0  0  0  0  0  0  0  0  0
  184.2720  144.9220  169.0710 N   0  0  0  0  0  0  0  0  0  0  0  0
  183.3620  146.0240  168.7890 C   0  0  2  0  0  0  0  0  0  0  0  0
  182.1010  145.4980  168.0930 C   0  0  0  0  0  0  0  0  0  0  0  0
  182.1660  144.5740  167.2860 O   0  0  0  0  0  0  0  0  0  0  0  0
  184.0490  147.1170  167.9510 C   0  0  0  0  0  0  0  0  0  0  0  0
  184.8620  146.6530  166.7280 C   0  0  0  0  0  0  0  0  0  0  0  0
  185.5200  145.5890  166.7600 O   0  0  0  0  0  0  0  0  0  0  0  0
  184.9010  147.4160  165.7410 O   0  0  0  0  0  0  0  0  0  0  0  0
  2  1  1  6
  3  2  1  0
  4  3  2  0
  5  2  1  0
  6  5  1  0
  7  6  2  0
  8  6  1  0
  9  3  1  0
 10  9  1  0
 11 10  1  0
 12 11  2  0
 10 13  1  6
 14 11  1  0
 15 14  1  0
 16 15  1  0
 17 16  2  0
 15 18  1  6
 19 18  1  0
 20 19  1  0
 21 20  1  0
 22 21  1  0
 23 16  1  0
 24 23  1  0
 25 24  1  0
 26 25  2  0
 24 27  1  6
 28 27  1  0
 29 28  2  0
 30 28  1  0
 32 31  1  1
 33 32  1  0
 34 33  2  0
 35 32  1  0
 36 35  1  0
 37 36  2  0
 38 36  1  0
 39 33  1  0
 40 39  1  0
 41 40  1  0
 42 41  2  0
 40 43  1  1
 44 43  1  0
 45 41  1  0
 46 45  1  0
 47 46  1  0
 48 47  2  0
 46 49  1  6
 50 49  1  0
 51 47  1  0
 52 51  1  0
 53 52  1  0
 54 53  2  0
 55 53  1  0
 56 55  1  0
 57 56  1  0
 58 57  2  0
 60 59  1  1
 61 60  1  0
 62 61  2  0
 63 60  1  0
 64 63  1  0
 65 63  1  0
 67 66  1  1
 68 67  1  0
 69 68  2  0
 70 67  1  0
 71 70  1  0
 70 72  1  6
 73 68  1  0
 74 73  1  0
 75 74  1  0
 76 75  2  0
 74 77  1  6
 78 77  1  0
 79 78  1  0
 80 79  1  0
 81 80  1  0
 82 81  1  0
 83 81  2  0
 84 75  1  0
 85 84  1  0
 86 85  1  0
 87 86  2  0
 85 88  1  1
 89 88  1  0
 90 89  2  0
 91 89  1  0
 93 92  1  6
 94 93  1  0
 95 94  2  0
 96 93  1  0
 97 96  1  0
 98 97  1  0
 99 98  1  0
100 99  1  0
101100  1  0
102100  2  0
103 94  1  0
104103  1  0
104105  1  1
106105  2  0
107104  1  0
108107  1  0
109108  1  0
109103  1  0
110105  1  0
111110  1  0
112111  1  0
113112  2  0
114112  1  0
115114  1  0
116115  1  0
117116  2  0
118116  1  0
119118  1  0
120119  1  0
121120  2  0
122120  1  0
123122  1  0
124123  1  0
125124  2  0
123126  1  6
127126  1  0
128127  2  0
129127  1  0
M  END
$$$$
