
     RDKit          3D

363355  0  0  0  0  0  0  0  0999 V2000
  133.1060  145.5950  155.4650 N   0  0  0  0  0  0  0  0  0  0  0  0
  133.1850  144.4900  154.5220 C   0  0  2  0  0  0  0  0  0  0  0  0
  132.1230  144.5630  153.4370 C   0  0  0  0  0  0  0  0  0  0  0  0
  132.3680  144.0910  152.3250 O   0  0  0  0  0  0  0  0  0  0  0  0
  133.1630  143.1770  155.2800 C   0  0  0  0  0  0  0  0  0  0  0  0
  134.4710  142.8800  155.9250 C   0  0  0  0  0  0  0  0  0  0  0  0
  135.6120  143.5060  155.4810 C   0  0  0  0  0  0  0  0  0  0  0  0
  134.5630  142.0440  156.9970 C   0  0  0  0  0  0  0  0  0  0  0  0
  136.8200  143.2700  156.0750 C   0  0  0  0  0  0  0  0  0  0  0  0
  135.7750  141.8090  157.5950 C   0  0  0  0  0  0  0  0  0  0  0  0
  136.9020  142.4250  157.1310 C   0  0  0  0  0  0  0  0  0  0  0  0
  134.0000  146.5390  150.9560 N   0  0  0  0  0  0  0  0  0  0  0  0
  134.8270  145.6780  150.1100 C   0  0  2  0  0  0  0  0  0  0  0  0
  133.9640  144.9610  149.0770 C   0  0  0  0  0  0  0  0  0  0  0  0
  134.3640  144.7880  147.9220 O   0  0  0  0  0  0  0  0  0  0  0  0
  135.6480  144.6860  150.9550 C   0  0  2  0  0  0  0  0  0  0  0  0
  136.9120  145.3560  151.4810 C   0  0  0  0  0  0  0  0  0  0  0  0
  136.0370  143.4600  150.1570 C   0  0  0  0  0  0  0  0  0  0  0  0
  137.7040  144.4860  152.4260 C   0  0  0  0  0  0  0  0  0  0  0  0
  132.7610  144.5490  149.4650 N   0  0  0  0  0  0  0  0  0  0  0  0
  131.9510  143.7600  148.5580 C   0  0  0  0  0  0  0  0  0  0  0  0
  131.1680  144.5470  147.5340 C   0  0  0  0  0  0  0  0  0  0  0  0
  130.6430  143.9490  146.5930 O   0  0  0  0  0  0  0  0  0  0  0  0
  131.0530  145.8640  147.6990 N   0  0  0  0  0  0  0  0  0  0  0  0
  130.2450  146.6700  146.7870 C   0  0  2  0  0  0  0  0  0  0  0  0
  130.9710  147.0970  145.5220 C   0  0  0  0  0  0  0  0  0  0  0  0
  130.3300  147.6500  144.6250 O   0  0  0  0  0  0  0  0  0  0  0  0
  129.7380  147.9280  147.4840 C   0  0  0  0  0  0  0  0  0  0  0  0
  128.3120  147.8430  147.9930 C   0  0  0  0  0  0  0  0  0  0  0  0
  127.9790  149.0610  148.7950 C   0  0  0  0  0  0  0  0  0  0  0  0
  127.4130  147.7430  146.8120 C   0  0  0  0  0  0  0  0  0  0  0  0
  132.2770  146.8760  145.4270 N   0  0  0  0  0  0  0  0  0  0  0  0
  133.0270  147.3910  144.2930 C   0  0  2  0  0  0  0  0  0  0  0  0
  133.0050  146.4060  143.1270 C   0  0  0  0  0  0  0  0  0  0  0  0
  133.2670  146.8040  141.9830 O   0  0  0  0  0  0  0  0  0  0  0  0
  134.4650  147.7040  144.7480 C   0  0  0  0  0  0  0  0  0  0  0  0
  135.1000  146.4830  145.3610 C   0  0  0  0  0  0  0  0  0  0  0  0
  135.3110  148.3150  143.6690 C   0  0  0  0  0  0  0  0  0  0  0  0
  132.6660  145.1360  143.3820 N   0  0  0  0  0  0  0  0  0  0  0  0
  132.6900  144.1270  142.3170 C   0  0  2  0  0  0  0  0  0  0  0  0
  131.7030  144.4100  141.1870 C   0  0  0  0  0  0  0  0  0  0  0  0
  132.1190  144.3820  140.0180 O   0  0  0  0  0  0  0  0  0  0  0  0
  132.5140  142.7210  142.9170 C   0  0  2  0  0  0  0  0  0  0  0  0
  133.7740  142.3040  143.6540 C   0  0  0  0  0  0  0  0  0  0  0  0
  132.2090  141.7290  141.8330 C   0  0  0  0  0  0  0  0  0  0  0  0
  134.9320  142.1330  142.7610 C   0  0  0  0  0  0  0  0  0  0  0  0
  130.4190  144.6840  141.4350 N   0  0  0  0  0  0  0  0  0  0  0  0
  129.4950  144.8790  140.3140 C   0  0  2  0  0  0  0  0  0  0  0  0
  129.5070  146.2700  139.6980 C   0  0  0  0  0  0  0  0  0  0  0  0
  128.5490  146.6170  139.0020 O   0  0  0  0  0  0  0  0  0  0  0  0
  128.1340  144.5850  140.9520 C   0  0  0  0  0  0  0  0  0  0  0  0
  128.2830  145.0490  142.3100 C   0  0  0  0  0  0  0  0  0  0  0  0
  129.6890  144.7370  142.7140 C   0  0  0  0  0  0  0  0  0  0  0  0
  130.5320  147.0870  139.9290 N   0  0  0  0  0  0  0  0  0  0  0  0
  130.5870  148.4120  139.3220 C   0  0  2  0  0  0  0  0  0  0  0  0
  131.9160  148.5800  138.5910 C   0  0  0  0  0  0  0  0  0  0  0  0
  131.9990  149.3140  137.6010 O   0  0  0  0  0  0  0  0  0  0  0  0
  130.3610  149.5070  140.3830 C   0  0  0  0  0  0  0  0  0  0  0  0
  130.7620  150.8710  139.8810 C   0  0  0  0  0  0  0  0  0  0  0  0
  128.9080  149.5340  140.8050 C   0  0  0  0  0  0  0  0  0  0  0  0
  132.9480  147.8570  139.0280 N   0  0  0  0  0  0  0  0  0  0  0  0
  134.2560  147.9780  138.3850 C   0  0  2  0  0  0  0  0  0  0  0  0
  134.2890  147.7410  136.8760 C   0  0  0  0  0  0  0  0  0  0  0  0
  134.9960  148.5030  136.1930 O   0  0  0  0  0  0  0  0  0  0  0  0
  135.2800  147.0600  139.0540 C   0  0  0  0  0  0  0  0  0  0  0  0
  136.0720  147.6070  140.2250 C   0  0  0  0  0  0  0  0  0  0  0  0
  136.6780  146.4710  140.9580 C   0  0  0  0  0  0  0  0  0  0  0  0
  137.1610  148.5100  139.7220 C   0  0  0  0  0  0  0  0  0  0  0  0
  133.6140  146.7440  136.2870 N   0  0  0  0  0  0  0  0  0  0  0  0
  133.7060  146.6020  134.8250 C   0  0  2  0  0  0  0  0  0  0  0  0
  133.1410  147.7870  134.0680 C   0  0  0  0  0  0  0  0  0  0  0  0
  133.4810  147.9630  132.8930 O   0  0  0  0  0  0  0  0  0  0  0  0
  132.9050  145.3250  134.5320 C   0  0  0  0  0  0  0  0  0  0  0  0
  132.7540  144.6510  135.8150 C   0  0  0  0  0  0  0  0  0  0  0  0
  132.7110  145.7230  136.8410 C   0  0  0  0  0  0  0  0  0  0  0  0
  136.2690  149.8790  134.0770 N   0  0  0  0  0  0  0  0  0  0  0  0
  137.5500  149.3180  133.6790 C   0  0  2  0  0  0  0  0  0  0  0  0
  137.8320  149.6590  132.2250 C   0  0  0  0  0  0  0  0  0  0  0  0
  138.9940  149.8100  131.8340 O   0  0  0  0  0  0  0  0  0  0  0  0
  137.5760  147.8100  133.9290 C   0  0  0  0  0  0  0  0  0  0  0  0
  138.9150  147.0720  133.8320 C   0  0  0  0  0  0  0  0  0  0  0  0
  138.8600  145.8580  134.7200 C   0  0  0  0  0  0  0  0  0  0  0  0
  139.2340  146.6340  132.4140 C   0  0  0  0  0  0  0  0  0  0  0  0
  136.7810  149.8090  131.4200 N   0  0  0  0  0  0  0  0  0  0  0  0
  136.9270  150.1930  130.0250 C   0  0  2  0  0  0  0  0  0  0  0  0
  137.0140  151.6990  129.8360 C   0  0  0  0  0  0  0  0  0  0  0  0
  137.3780  152.1470  128.7450 O   0  0  0  0  0  0  0  0  0  0  0  0
  135.7580  149.6400  129.2040 C   0  0  0  0  0  0  0  0  0  0  0  0
  135.4310  148.1830  129.5060 C   0  0  0  0  0  0  0  0  0  0  0  0
  136.0610  147.2360  128.5000 C   0  0  0  0  0  0  0  0  0  0  0  0
  136.1280  145.8210  129.0490 C   0  0  0  0  0  0  0  0  0  0  0  0
  134.8090  145.3470  129.5350 N   0  0  0  0  0  0  0  0  0  0  0  0
  141.2380  152.3480  130.8480 N   0  0  0  0  0  0  0  0  0  0  0  0
  142.3360  151.4870  130.4620 C   0  0  0  0  0  0  0  0  0  0  0  0
  142.4620  150.3330  131.4290 C   0  0  0  0  0  0  0  0  0  0  0  0
  141.7770  149.3180  131.2770 O   0  0  0  0  0  0  0  0  0  0  0  0
  143.3430  150.4810  132.4210 N   0  0  0  0  0  0  0  0  0  0  0  0
  143.4400  149.5670  133.5580 C   0  0  2  0  0  0  0  0  0  0  0  0
  143.7730  148.1440  133.0950 C   0  0  0  0  0  0  0  0  0  0  0  0
  142.9530  147.2270  133.1160 O   0  0  0  0  0  0  0  0  0  0  0  0
  142.1590  149.6160  134.3990 C   0  0  0  0  0  0  0  0  0  0  0  0
  142.2260  150.4960  135.6480 C   0  0  0  0  0  0  0  0  0  0  0  0
  140.9390  150.4120  136.4320 C   0  0  0  0  0  0  0  0  0  0  0  0
  143.3770  150.0570  136.5060 C   0  0  0  0  0  0  0  0  0  0  0  0
  145.0120  148.0060  132.6400 N   0  0  0  0  0  0  0  0  0  0  0  0
  145.5460  146.7270  132.2050 C   0  0  2  0  0  0  0  0  0  0  0  0
  145.6770  145.7670  133.3900 C   0  0  0  0  0  0  0  0  0  0  0  0
  145.2890  146.0650  134.5210 O   0  0  0  0  0  0  0  0  0  0  0  0
  146.8970  146.9310  131.5280 C   0  0  2  0  0  0  0  0  0  0  0  0
  147.9170  147.0440  132.5250 O   0  0  0  0  0  0  0  0  0  0  0  0
  146.8830  148.2100  130.7100 C   0  0  0  0  0  0  0  0  0  0  0  0
  146.2300  144.5840  133.1150 N   0  0  0  0  0  0  0  0  0  0  0  0
  146.2950  143.5500  134.1370 C   0  0  0  0  0  0  0  0  0  0  0  0
  147.1710  143.9200  135.3170 C   0  0  0  0  0  0  0  0  0  0  0  0
  146.7770  143.7540  136.4770 O   0  0  0  0  0  0  0  0  0  0  0  0
  148.3730  144.4270  135.0410 N   0  0  0  0  0  0  0  0  0  0  0  0
  149.2780  144.7910  136.1240 C   0  0  2  0  0  0  0  0  0  0  0  0
  148.7020  145.9280  136.9490 C   0  0  0  0  0  0  0  0  0  0  0  0
  148.8760  145.9710  138.1720 O   0  0  0  0  0  0  0  0  0  0  0  0
  150.6420  145.1790  135.5650 C   0  0  0  0  0  0  0  0  0  0  0  0
  150.6630  146.5470  135.2010 O   0  0  0  0  0  0  0  0  0  0  0  0
  145.4990  146.4660  137.5350 N   0  0  0  0  0  0  0  0  0  0  0  0
  144.4570  145.9290  138.4070 C   0  0  2  0  0  0  0  0  0  0  0  0
  145.0510  145.1270  139.5560 C   0  0  0  0  0  0  0  0  0  0  0  0
  144.5400  145.1720  140.6810 O   0  0  0  0  0  0  0  0  0  0  0  0
  143.4860  145.0720  137.6050 C   0  0  0  0  0  0  0  0  0  0  0  0
  142.1150  144.8720  138.2330 C   0  0  0  0  0  0  0  0  0  0  0  0
  141.6110  146.1670  138.8030 C   0  0  0  0  0  0  0  0  0  0  0  0
  141.1570  144.3750  137.1870 C   0  0  0  0  0  0  0  0  0  0  0  0
  144.5800  145.9110  143.5340 N   0  0  0  0  0  0  0  0  0  0  0  0
  144.3040  144.9370  144.5900 C   0  0  2  0  0  0  0  0  0  0  0  0
  145.3040  145.0890  145.7180 C   0  0  0  0  0  0  0  0  0  0  0  0
  144.9360  145.1810  146.8940 O   0  0  0  0  0  0  0  0  0  0  0  0
  144.3470  143.5070  144.0360 C   0  0  0  0  0  0  0  0  0  0  0  0
  144.4280  142.5110  145.1760 C   0  0  0  0  0  0  0  0  0  0  0  0
  143.1630  143.2510  143.1950 C   0  0  0  0  0  0  0  0  0  0  0  0
  142.3870  153.7050  147.3650 N   0  0  0  0  0  0  0  0  0  0  0  0
  142.4300  152.3930  147.9860 C   0  0  2  0  0  0  0  0  0  0  0  0
  143.4790  152.3300  149.0800 C   0  0  0  0  0  0  0  0  0  0  0  0
  143.2950  151.5990  150.0510 O   0  0  0  0  0  0  0  0  0  0  0  0
  142.6700  151.3110  146.9480 C   0  0  0  0  0  0  0  0  0  0  0  0
  141.4020  150.8280  146.3060 C   0  0  0  0  0  0  0  0  0  0  0  0
  140.6780  149.8580  147.2010 C   0  0  0  0  0  0  0  0  0  0  0  0
  139.4540  149.3710  146.5780 N   0  0  0  0  0  0  0  0  0  0  0  0
  139.2090  148.0910  146.3210 C   0  0  0  0  0  0  0  0  0  0  0  0
  140.1020  147.1630  146.6340 N   0  0  0  0  0  0  0  0  0  0  0  0
  138.0740  147.7360  145.7470 N   0  0  0  0  0  0  0  0  0  0  0  0
  130.4460  139.6690  159.3780 N   0  0  0  0  0  0  0  0  0  0  0  0
  131.4820  139.7650  158.3530 C   0  0  2  0  0  0  0  0  0  0  0  0
  131.0460  139.0160  157.0990 C   0  0  0  0  0  0  0  0  0  0  0  0
  131.0540  139.5580  155.9860 O   0  0  0  0  0  0  0  0  0  0  0  0
  132.8100  139.2150  158.8970 C   0  0  2  0  0  0  0  0  0  0  0  0
  133.5270  140.2640  159.7290 C   0  0  0  0  0  0  0  0  0  0  0  0
  133.7040  138.7640  157.7750 C   0  0  0  0  0  0  0  0  0  0  0  0
  134.7600  139.7390  160.3910 C   0  0  0  0  0  0  0  0  0  0  0  0
  130.6150  137.7670  157.2690 N   0  0  0  0  0  0  0  0  0  0  0  0
  130.1650  136.9920  156.1250 C   0  0  2  0  0  0  0  0  0  0  0  0
  128.8680  137.5450  155.5650 C   0  0  0  0  0  0  0  0  0  0  0  0
  128.6490  137.4780  154.3550 O   0  0  0  0  0  0  0  0  0  0  0  0
  129.9980  135.5300  156.5090 C   0  0  0  0  0  0  0  0  0  0  0  0
  131.3060  134.8820  156.8550 C   0  0  0  0  0  0  0  0  0  0  0  0
  132.3590  135.3390  156.4300 O   0  0  0  0  0  0  0  0  0  0  0  0
  131.2540  133.8130  157.6330 N   0  0  0  0  0  0  0  0  0  0  0  0
  128.0890  140.6890  155.3990 N   0  0  0  0  0  0  0  0  0  0  0  0
  128.5030  141.7900  154.5540 C   0  0  0  0  0  0  0  0  0  0  0  0
  129.1010  141.3140  153.2490 C   0  0  0  0  0  0  0  0  0  0  0  0
  128.8230  141.8770  152.1880 O   0  0  0  0  0  0  0  0  0  0  0  0
  129.9180  140.2630  153.3060 N   0  0  0  0  0  0  0  0  0  0  0  0
  130.4930  139.7340  152.0750 C   0  0  2  0  0  0  0  0  0  0  0  0
  129.4030  139.2210  151.1400 C   0  0  0  0  0  0  0  0  0  0  0  0
  129.5050  139.3800  149.9210 O   0  0  0  0  0  0  0  0  0  0  0  0
  131.4840  138.6160  152.3790 C   0  0  0  0  0  0  0  0  0  0  0  0
  132.9190  139.0570  152.4390 C   0  0  0  0  0  0  0  0  0  0  0  0
  133.5210  139.6480  151.3570 C   0  0  0  0  0  0  0  0  0  0  0  0
  133.6890  138.7820  153.5520 C   0  0  0  0  0  0  0  0  0  0  0  0
  134.8450  140.0260  151.4120 C   0  0  0  0  0  0  0  0  0  0  0  0
  135.0080  139.1480  153.6060 C   0  0  0  0  0  0  0  0  0  0  0  0
  135.5880  139.7670  152.5360 C   0  0  0  0  0  0  0  0  0  0  0  0
  128.3610  138.5890  151.6920 N   0  0  0  0  0  0  0  0  0  0  0  0
  127.2390  138.1080  150.8810 C   0  0  2  0  0  0  0  0  0  0  0  0
  126.4410  139.2680  150.3060 C   0  0  0  0  0  0  0  0  0  0  0  0
  126.1270  139.2910  149.1120 O   0  0  0  0  0  0  0  0  0  0  0  0
  126.3230  137.1800  151.6990 C   0  0  2  0  0  0  0  0  0  0  0  0
  127.0480  135.9260  152.1570 C   0  0  0  0  0  0  0  0  0  0  0  0
  125.1210  136.7990  150.8890 C   0  0  0  0  0  0  0  0  0  0  0  0
  127.8440  135.2870  151.0840 C   0  0  0  0  0  0  0  0  0  0  0  0
  126.0900  140.2400  151.1400 N   0  0  0  0  0  0  0  0  0  0  0  0
  125.1800  141.2970  150.7240 C   0  0  2  0  0  0  0  0  0  0  0  0
  125.8740  142.4350  149.9940 C   0  0  0  0  0  0  0  0  0  0  0  0
  125.2020  143.4010  149.6260 O   0  0  0  0  0  0  0  0  0  0  0  0
  124.4240  141.8420  151.9350 C   0  0  0  0  0  0  0  0  0  0  0  0
  123.0140  141.2960  152.1390 C   0  0  0  0  0  0  0  0  0  0  0  0
  123.0120  139.7930  152.1530 C   0  0  0  0  0  0  0  0  0  0  0  0
  122.4440  141.8190  153.4310 C   0  0  0  0  0  0  0  0  0  0  0  0
  127.1880  142.3690  149.8060 N   0  0  0  0  0  0  0  0  0  0  0  0
  127.8640  143.3330  148.9760 C   0  0  0  0  0  0  0  0  0  0  0  0
  127.3300  143.3400  147.5600 C   0  0  0  0  0  0  0  0  0  0  0  0
  126.6500  144.2780  147.1390 O   0  0  0  0  0  0  0  0  0  0  0  0
  127.6220  142.2880  146.7970 N   0  0  0  0  0  0  0  0  0  0  0  0
  127.0860  142.2070  145.4340 C   0  0  2  0  0  0  0  0  0  0  0  0
  125.5750  142.1780  145.3730 C   0  0  0  0  0  0  0  0  0  0  0  0
  125.0000  142.6880  144.4040 O   0  0  0  0  0  0  0  0  0  0  0  0
  127.6910  140.9050  144.9050 C   0  0  0  0  0  0  0  0  0  0  0  0
  128.9190  140.7560  145.6530 C   0  0  0  0  0  0  0  0  0  0  0  0
  128.6420  141.2610  147.0310 C   0  0  0  0  0  0  0  0  0  0  0  0
  143.4860  128.6320  152.9290 N   0  0  0  0  0  0  0  0  0  0  0  0
  142.0450  128.8600  152.9730 C   0  0  2  0  0  0  0  0  0  0  0  0
  141.6440  129.9280  151.9730 C   0  0  0  0  0  0  0  0  0  0  0  0
  140.7220  129.7280  151.1770 O   0  0  0  0  0  0  0  0  0  0  0  0
  141.6060  129.2640  154.3750 C   0  0  0  0  0  0  0  0  0  0  0  0
  140.2480  129.9540  154.4860 C   0  0  0  0  0  0  0  0  0  0  0  0
  139.1110  129.0450  154.0510 C   0  0  0  0  0  0  0  0  0  0  0  0
  140.0310  130.4680  155.8980 C   0  0  0  0  0  0  0  0  0  0  0  0
  141.9980  128.5730  148.7990 N   0  0  0  0  0  0  0  0  0  0  0  0
  140.8310  127.7690  148.4800 C   0  0  2  0  0  0  0  0  0  0  0  0
  139.7080  128.6640  147.9670 C   0  0  0  0  0  0  0  0  0  0  0  0
  139.2700  128.5220  146.8190 O   0  0  0  0  0  0  0  0  0  0  0  0
  140.3960  126.9770  149.7170 C   0  0  0  0  0  0  0  0  0  0  0  0
  139.2490  126.0300  149.4850 C   0  0  0  0  0  0  0  0  0  0  0  0
  138.6330  125.4340  150.5590 C   0  0  0  0  0  0  0  0  0  0  0  0
  138.8370  125.6790  148.2120 C   0  0  0  0  0  0  0  0  0  0  0  0
  137.5970  124.5660  150.3750 C   0  0  0  0  0  0  0  0  0  0  0  0
  137.7980  124.8070  148.0240 C   0  0  0  0  0  0  0  0  0  0  0  0
  137.1810  124.2450  149.1070 C   0  0  0  0  0  0  0  0  0  0  0  0
  139.2540  129.6140  148.7960 N   0  0  0  0  0  0  0  0  0  0  0  0
  138.0040  130.3090  148.5040 C   0  0  2  0  0  0  0  0  0  0  0  0
  138.0890  131.0530  147.1860 C   0  0  0  0  0  0  0  0  0  0  0  0
  137.2160  130.9090  146.3250 O   0  0  0  0  0  0  0  0  0  0  0  0
  137.6370  131.2730  149.6300 C   0  0  0  0  0  0  0  0  0  0  0  0
  137.6950  130.6900  151.0180 C   0  0  0  0  0  0  0  0  0  0  0  0
  137.6610  131.7530  152.0940 C   0  0  0  0  0  0  0  0  0  0  0  0
  137.1440  131.4690  153.1930 O   0  0  0  0  0  0  0  0  0  0  0  0
  138.1400  132.8760  151.8390 O   0  0  0  0  0  0  0  0  0  0  0  0
  139.1880  131.7770  146.9800 N   0  0  0  0  0  0  0  0  0  0  0  0
  139.3920  132.5440  145.7580 C   0  0  2  0  0  0  0  0  0  0  0  0
  139.2210  131.6900  144.5080 C   0  0  0  0  0  0  0  0  0  0  0  0
  138.6650  132.1580  143.5090 O   0  0  0  0  0  0  0  0  0  0  0  0
  140.7830  133.1750  145.8090 C   0  0  2  0  0  0  0  0  0  0  0  0
  140.8130  134.1890  146.8200 O   0  0  0  0  0  0  0  0  0  0  0  0
  141.1710  133.7700  144.4950 C   0  0  0  0  0  0  0  0  0  0  0  0
  139.6190  130.4210  144.5640 N   0  0  0  0  0  0  0  0  0  0  0  0
  139.5630  129.5550  143.3950 C   0  0  2  0  0  0  0  0  0  0  0  0
  138.3590  128.6250  143.3680 C   0  0  0  0  0  0  0  0  0  0  0  0
  138.2580  127.8080  142.4490 O   0  0  0  0  0  0  0  0  0  0  0  0
  140.8430  128.7260  143.2810 C   0  0  0  0  0  0  0  0  0  0  0  0
  142.0010  129.3380  142.4950 C   0  0  0  0  0  0  0  0  0  0  0  0
  141.6020  129.4390  141.0370 C   0  0  0  0  0  0  0  0  0  0  0  0
  142.4310  130.6880  143.0170 C   0  0  0  0  0  0  0  0  0  0  0  0
  137.4350  128.7300  144.3270 N   0  0  0  0  0  0  0  0  0  0  0  0
  136.2800  127.8380  144.3040 C   0  0  2  0  0  0  0  0  0  0  0  0
  135.4080  128.0970  143.0860 C   0  0  0  0  0  0  0  0  0  0  0  0
  134.7450  127.1820  142.5960 O   0  0  0  0  0  0  0  0  0  0  0  0
  135.4890  127.9770  145.6040 C   0  0  0  0  0  0  0  0  0  0  0  0
  134.3030  127.0530  145.7740 C   0  0  0  0  0  0  0  0  0  0  0  0
  134.3460  126.0290  146.6950 C   0  0  0  0  0  0  0  0  0  0  0  0
  133.1080  127.2730  145.1140 C   0  0  0  0  0  0  0  0  0  0  0  0
  133.2750  125.1970  146.8820 C   0  0  0  0  0  0  0  0  0  0  0  0
  132.0340  126.4460  145.2960 C   0  0  0  0  0  0  0  0  0  0  0  0
  132.1200  125.4120  146.1850 C   0  0  0  0  0  0  0  0  0  0  0  0
  131.0430  124.5850  146.3820 O   0  0  0  0  0  0  0  0  0  0  0  0
  135.4170  129.3160  142.5630 N   0  0  0  0  0  0  0  0  0  0  0  0
  134.6590  129.6030  141.3540 C   0  0  2  0  0  0  0  0  0  0  0  0
  135.3830  129.1940  140.0830 C   0  0  0  0  0  0  0  0  0  0  0  0
  134.8210  129.3510  138.9950 O   0  0  0  0  0  0  0  0  0  0  0  0
  134.3090  131.0860  141.2960 C   0  0  0  0  0  0  0  0  0  0  0  0
  135.4300  131.8940  141.6140 O   0  0  0  0  0  0  0  0  0  0  0  0
  136.6130  128.6950  140.1870 N   0  0  0  0  0  0  0  0  0  0  0  0
  137.3070  128.1410  139.0390 C   0  0  2  0  0  0  0  0  0  0  0  0
  137.5770  126.6530  139.1560 C   0  0  0  0  0  0  0  0  0  0  0  0
  137.8250  126.0090  138.1350 O   0  0  0  0  0  0  0  0  0  0  0  0
  138.6390  128.8640  138.8110 C   0  0  0  0  0  0  0  0  0  0  0  0
  138.5330  130.2160  138.1230 C   0  0  0  0  0  0  0  0  0  0  0  0
  139.8870  130.9100  138.1040 C   0  0  0  0  0  0  0  0  0  0  0  0
  137.9910  130.0240  136.7190 C   0  0  0  0  0  0  0  0  0  0  0  0
  127.0470  130.8250  137.0860 N   0  0  0  0  0  0  0  0  0  0  0  0
  127.2800  131.6920  138.2550 C   0  0  2  0  0  0  0  0  0  0  0  0
  126.1530  131.7130  139.2680 C   0  0  0  0  0  0  0  0  0  0  0  0
  126.4110  132.0080  140.4400 O   0  0  0  0  0  0  0  0  0  0  0  0
  127.4710  133.0770  137.6290 C   0  0  0  0  0  0  0  0  0  0  0  0
  127.9480  132.8070  136.2750 C   0  0  0  0  0  0  0  0  0  0  0  0
  127.2830  131.5500  135.8260 C   0  0  0  0  0  0  0  0  0  0  0  0
  126.5060  128.4380  141.7690 N   0  0  0  0  0  0  0  0  0  0  0  0
  127.5650  128.5550  142.7670 C   0  0  2  0  0  0  0  0  0  0  0  0
  127.2020  129.5990  143.8120 C   0  0  0  0  0  0  0  0  0  0  0  0
  127.5240  129.4420  144.9970 O   0  0  0  0  0  0  0  0  0  0  0  0
  128.9150  128.8520  142.0870 C   0  0  2  0  0  0  0  0  0  0  0  0
  130.0130  129.0300  143.1210 C   0  0  0  0  0  0  0  0  0  0  0  0
  128.8390  130.0660  141.2010 C   0  0  0  0  0  0  0  0  0  0  0  0
  131.3360  129.1830  142.5000 C   0  0  0  0  0  0  0  0  0  0  0  0
  126.5110  130.6670  143.4060 N   0  0  0  0  0  0  0  0  0  0  0  0
  126.0340  131.6450  144.3750 C   0  0  2  0  0  0  0  0  0  0  0  0
  125.0190  131.0300  145.3250 C   0  0  0  0  0  0  0  0  0  0  0  0
  125.0120  131.3460  146.5170 O   0  0  0  0  0  0  0  0  0  0  0  0
  125.4280  132.8470  143.6630 C   0  0  0  0  0  0  0  0  0  0  0  0
  124.6860  133.6270  144.5780 O   0  0  0  0  0  0  0  0  0  0  0  0
  126.9880  128.8880  147.8190 N   0  0  0  0  0  0  0  0  0  0  0  0
  127.7450  129.5970  148.8370 C   0  0  2  0  0  0  0  0  0  0  0  0
  126.8610  130.4410  149.7460 C   0  0  0  0  0  0  0  0  0  0  0  0
  127.2130  130.6590  150.9050 O   0  0  0  0  0  0  0  0  0  0  0  0
  128.8540  130.4180  148.1830 C   0  0  2  0  0  0  0  0  0  0  0  0
  129.9620  130.5610  149.1840 C   0  0  0  0  0  0  0  0  0  0  0  0
  128.3570  131.7390  147.7760 C   0  0  0  0  0  0  0  0  0  0  0  0
  130.5390  129.2750  149.5040 C   0  0  0  0  0  0  0  0  0  0  0  0
  125.7060  130.9140  149.2730 N   0  0  0  0  0  0  0  0  0  0  0  0
  124.7630  131.5430  150.1860 C   0  0  2  0  0  0  0  0  0  0  0  0
  124.2300  130.5210  151.1760 C   0  0  0  0  0  0  0  0  0  0  0  0
  124.0860  130.8150  152.3700 O   0  0  0  0  0  0  0  0  0  0  0  0
  123.6320  132.2000  149.4010 C   0  0  2  0  0  0  0  0  0  0  0  0
  124.1480  133.3210  148.6810 O   0  0  0  0  0  0  0  0  0  0  0  0
  122.5490  132.6900  150.3280 C   0  0  0  0  0  0  0  0  0  0  0  0
  125.9640  127.9260  152.1310 N   0  0  0  0  0  0  0  0  0  0  0  0
  127.0860  127.7040  153.0280 C   0  0  0  0  0  0  0  0  0  0  0  0
  127.1890  128.7750  154.0910 C   0  0  0  0  0  0  0  0  0  0  0  0
  127.4020  128.4760  155.2660 O   0  0  0  0  0  0  0  0  0  0  0  0
  127.0030  130.0330  153.6960 N   0  0  0  0  0  0  0  0  0  0  0  0
  127.0160  131.1180  154.6580 C   0  0  0  0  0  0  0  0  0  0  0  0
  125.8970  131.0140  155.6750 C   0  0  0  0  0  0  0  0  0  0  0  0
  126.1110  131.2390  156.8670 O   0  0  0  0  0  0  0  0  0  0  0  0
  132.6860  124.5150  154.3100 N   0  0  0  0  0  0  0  0  0  0  0  0
  133.0660  125.8300  154.7980 C   0  0  2  0  0  0  0  0  0  0  0  0
  132.7000  126.0380  156.2570 C   0  0  0  0  0  0  0  0  0  0  0  0
  133.2730  126.9260  156.8940 O   0  0  0  0  0  0  0  0  0  0  0  0
  132.4570  126.8960  153.9000 C   0  0  0  0  0  0  0  0  0  0  0  0
  133.1840  127.0450  152.6040 C   0  0  0  0  0  0  0  0  0  0  0  0
  134.5570  126.9880  152.5750 C   0  0  0  0  0  0  0  0  0  0  0  0
  132.5090  127.1780  151.4190 C   0  0  0  0  0  0  0  0  0  0  0  0
  135.2380  127.1050  151.3960 C   0  0  0  0  0  0  0  0  0  0  0  0
  133.1940  127.2870  150.2380 C   0  0  0  0  0  0  0  0  0  0  0  0
  134.5520  127.2540  150.2270 C   0  0  0  0  0  0  0  0  0  0  0  0
  135.6450  125.8350  158.2410 N   0  0  0  0  0  0  0  0  0  0  0  0
  136.5130  126.9860  158.0710 C   0  0  2  0  0  0  0  0  0  0  0  0
  135.9160  128.2500  158.6740 C   0  0  0  0  0  0  0  0  0  0  0  0
  136.5260  129.3180  158.5780 O   0  0  0  0  0  0  0  0  0  0  0  0
  136.8050  127.1980  156.5840 C   0  0  0  0  0  0  0  0  0  0  0  0
  137.9620  126.3930  156.0740 C   0  0  0  0  0  0  0  0  0  0  0  0
  137.9100  125.8020  154.8300 C   0  0  0  0  0  0  0  0  0  0  0  0
  139.0920  126.2180  156.8420 C   0  0  0  0  0  0  0  0  0  0  0  0
  138.9630  125.0590  154.3650 C   0  0  0  0  0  0  0  0  0  0  0  0
  140.1500  125.4770  156.3820 C   0  0  0  0  0  0  0  0  0  0  0  0
  140.0850  124.8980  155.1430 C   0  0  0  0  0  0  0  0  0  0  0  0
  134.7400  128.1540  159.2950 N   0  0  0  0  0  0  0  0  0  0  0  0
  134.0860  129.3030  159.8990 C   0  0  2  0  0  0  0  0  0  0  0  0
  133.9250  129.1680  161.4050 C   0  0  0  0  0  0  0  0  0  0  0  0
  133.3460  130.0570  162.0330 O   0  0  0  0  0  0  0  0  0  0  0  0
  132.7230  129.5320  159.2430 C   0  0  0  0  0  0  0  0  0  0  0  0
  132.8430  130.1870  157.8870 C   0  0  0  0  0  0  0  0  0  0  0  0
  133.9820  130.3210  157.4020 O   0  0  0  0  0  0  0  0  0  0  0  0
  131.8070  130.5600  157.3020 O   0  0  0  0  0  0  0  0  0  0  0  0
  145.7470  136.5000  153.0210 N   0  0  0  0  0  0  0  0  0  0  0  0
  144.6910  136.6780  152.0350 C   0  0  2  0  0  0  0  0  0  0  0  0
  145.1830  137.3880  150.7840 C   0  0  0  0  0  0  0  0  0  0  0  0
  144.4770  137.4000  149.7740 O   0  0  0  0  0  0  0  0  0  0  0  0
  143.5420  137.4570  152.6660 C   0  0  0  0  0  0  0  0  0  0  0  0
  142.1980  137.0330  152.1470 C   0  0  0  0  0  0  0  0  0  0  0  0
  141.9640  137.0070  150.9440 O   0  0  0  0  0  0  0  0  0  0  0  0
  141.2980  136.6950  153.0580 N   0  0  0  0  0  0  0  0  0  0  0  0
  146.0640  134.0020  147.0410 N   0  0  0  0  0  0  0  0  0  0  0  0
  145.4290  133.9790  145.7150 C   0  0  2  0  0  0  0  0  0  0  0  0
  146.3910  134.0890  144.5500 C   0  0  0  0  0  0  0  0  0  0  0  0
  146.1340  133.4770  143.5080 O   0  0  0  0  0  0  0  0  0  0  0  0
  144.4800  135.1780  145.7720 C   0  0  0  0  0  0  0  0  0  0  0  0
  144.1070  135.2530  147.1760 C   0  0  0  0  0  0  0  0  0  0  0  0
  145.3490  134.9130  147.9450 C   0  0  0  0  0  0  0  0  0  0  0  0
  2  1  1  1
  3  2  1  0
  4  3  2  0
  5  2  1  0
  6  5  1  0
  7  6  2  0
  8  6  1  0
  9  7  1  0
 10  8  2  0
 11 10  1  0
 11  9  2  0
 13 12  1  1
 14 13  1  0
 15 14  2  0
 16 13  1  0
 17 16  1  0
 16 18  1  6
 19 17  1  0
 20 14  1  0
 21 20  1  0
 22 21  1  0
 23 22  2  0
 24 22  1  0
 25 24  1  0
 26 25  1  0
 27 26  2  0
 25 28  1  1
 29 28  1  0
 30 29  1  0
 31 29  1  0
 32 26  1  0
 33 32  1  1
 34 33  1  0
 35 34  2  0
 36 33  1  0
 37 36  1  0
 38 36  1  0
 39 34  1  0
 40 39  1  1
 41 40  1  0
 42 41  2  0
 43 40  1  0
 44 43  1  0
 43 45  1  6
 46 44  1  0
 47 41  1  0
 48 47  1  0
 48 49  1  1
 50 49  2  0
 51 48  1  0
 52 51  1  0
 53 47  1  0
 53 52  1  0
 54 49  1  0
 55 54  1  1
 56 55  1  0
 57 56  2  0
 58 55  1  0
 59 58  1  0
 60 58  1  0
 61 56  1  0
 62 61  1  0
 63 62  1  0
 64 63  2  0
 62 65  1  1
 66 65  1  0
 67 66  1  0
 68 66  1  0
 69 63  1  0
 70 69  1  0
 70 71  1  6
 72 71  2  0
 73 70  1  0
 74 73  1  0
 75 74  1  0
 75 69  1  0
 77 76  1  6
 78 77  1  0
 79 78  2  0
 80 77  1  0
 81 80  1  0
 82 81  1  0
 83 81  1  0
 84 78  1  0
 85 84  1  0
 86 85  1  0
 87 86  2  0
 85 88  1  6
 89 88  1  0
 90 89  1  0
 91 90  1  0
 92 91  1  0
 94 93  1  0
 95 94  1  0
 96 95  2  0
 97 95  1  0
 98 97  1  0
 99 98  1  0
100 99  2  0
 98101  1  6
102101  1  0
103102  1  0
104102  1  0
105 99  1  0
106105  1  1
107106  1  0
108107  2  0
109106  1  0
110109  1  0
109111  1  1
112107  1  0
113112  1  0
114113  1  0
115114  2  0
116114  1  0
117116  1  0
118117  1  0
119118  2  0
117120  1  6
121120  1  0
123122  1  6
124123  1  0
125124  2  0
126123  1  0
127126  1  0
128127  1  0
129127  1  0
131130  1  6
132131  1  0
133132  2  0
134131  1  0
135134  1  0
136134  1  0
138137  1  6
139138  1  0
140139  2  0
141138  1  0
142141  1  0
143142  1  0
144143  1  0
145144  1  0
146145  1  0
147145  2  0
149148  1  1
150149  1  0
151150  2  0
152149  1  0
153152  1  0
152154  1  6
155153  1  0
156150  1  0
157156  1  0
158157  1  0
159158  2  0
157160  1  1
161160  1  0
162161  2  0
163161  1  0
165164  1  0
166165  1  0
167166  2  0
168166  1  0
169168  1  0
170169  1  0
171170  2  0
169172  1  1
173172  1  0
174173  2  0
175173  1  0
176174  1  0
177175  2  0
178176  2  0
178177  1  0
179170  1  0
180179  1  1
181180  1  0
182181  2  0
183180  1  0
184183  1  0
183185  1  6
186184  1  0
187181  1  0
188187  1  0
189188  1  0
190189  2  0
188191  1  1
192191  1  0
193192  1  0
194192  1  0
195189  1  0
196195  1  0
197196  1  0
198197  2  0
199197  1  0
200199  1  0
200201  1  1
202201  2  0
203200  1  0
204203  1  0
205204  1  0
205199  1  0
207206  1  1
208207  1  0
209208  2  0
210207  1  0
211210  1  0
212211  1  0
213211  1  0
215214  1  1
216215  1  0
217216  2  0
218215  1  0
219218  1  0
220219  2  0
221219  1  0
222220  1  0
223221  2  0
224223  1  0
224222  2  0
225216  1  0
226225  1  0
227226  1  0
228227  2  0
226229  1  1
230229  1  0
231230  1  0
232231  2  0
233231  1  0
234227  1  0
235234  1  1
236235  1  0
237236  2  0
238235  1  0
239238  1  0
238240  1  6
241236  1  0
242241  1  0
243242  1  0
244243  2  0
242245  1  1
246245  1  0
247246  1  0
248246  1  0
249243  1  0
250249  1  0
251250  1  0
252251  2  0
250253  1  1
254253  1  0
255254  2  0
256254  1  0
257255  1  0
258256  2  0
259257  2  0
259258  1  0
260259  1  0
261251  1  0
262261  1  0
263262  1  0
264263  2  0
262265  1  6
266265  1  0
267263  1  0
268267  1  0
269268  1  0
270269  2  0
268271  1  1
272271  1  0
273272  1  0
274272  1  0
276275  1  0
276277  1  1
278277  2  0
279276  1  0
280279  1  0
281280  1  0
281275  1  0
283282  1  6
284283  1  0
285284  2  0
286283  1  0
287286  1  0
286288  1  1
289287  1  0
290284  1  0
291290  1  0
292291  1  0
293292  2  0
291294  1  6
295294  1  0
297296  1  6
298297  1  0
299298  2  0
300297  1  0
301300  1  0
300302  1  1
303301  1  0
304298  1  0
305304  1  6
306305  1  0
307306  2  0
308305  1  0
309308  1  0
308310  1  1
312311  1  0
313312  1  0
314313  2  0
315313  1  0
316315  1  0
317316  1  0
318317  2  0
320319  1  6
321320  1  0
322321  2  0
323320  1  0
324323  1  0
325324  2  0
326324  1  0
327325  1  0
328326  2  0
329328  1  0
329327  2  0
331330  1  6
332331  1  0
333332  2  0
334331  1  0
335334  1  0
336335  2  0
337335  1  0
338336  1  0
339337  2  0
340338  2  0
340339  1  0
341332  1  0
342341  1  0
343342  1  0
344343  2  0
342345  1  6
346345  1  0
347346  2  0
348346  1  0
350349  1  1
351350  1  0
352351  2  0
353350  1  0
354353  1  0
355354  2  0
356354  1  0
358357  1  0
358359  1  6
360359  2  0
361358  1  0
362361  1  0
363357  1  0
363362  1  0
M  END
$$$$
