
     RDKit          3D

369358  0  0  0  0  0  0  0  0999 V2000
  139.8200  125.4910  151.5350 N   0  0  0  0  0  0  0  0  0  0  0  0
  138.8890  125.1910  150.4600 C   0  0  0  0  0  0  0  0  0  0  0  0
  138.4300  126.4200  149.6980 C   0  0  0  0  0  0  0  0  0  0  0  0
  138.2480  126.3660  148.4790 O   0  0  0  0  0  0  0  0  0  0  0  0
  138.2190  127.5390  150.4000 N   0  0  0  0  0  0  0  0  0  0  0  0
  137.7890  128.7660  149.7280 C   0  0  2  0  0  0  0  0  0  0  0  0
  138.8790  129.2660  148.7930 C   0  0  0  0  0  0  0  0  0  0  0  0
  138.6290  129.5670  147.6210 O   0  0  0  0  0  0  0  0  0  0  0  0
  137.4020  129.8450  150.7530 C   0  0  2  0  0  0  0  0  0  0  0  0
  136.0530  129.5280  151.3840 C   0  0  0  0  0  0  0  0  0  0  0  0
  137.3430  131.2020  150.0920 C   0  0  0  0  0  0  0  0  0  0  0  0
  135.6130  130.5570  152.3900 C   0  0  0  0  0  0  0  0  0  0  0  0
  140.1110  129.3440  149.2920 N   0  0  0  0  0  0  0  0  0  0  0  0
  141.2060  129.7900  148.4580 C   0  0  0  0  0  0  0  0  0  0  0  0
  141.5700  128.8250  147.3530 C   0  0  0  0  0  0  0  0  0  0  0  0
  142.1190  129.2510  146.3330 O   0  0  0  0  0  0  0  0  0  0  0  0
  139.8160  127.3520  145.1930 N   0  0  0  0  0  0  0  0  0  0  0  0
  139.0170  127.4700  143.9810 C   0  0  2  0  0  0  0  0  0  0  0  0
  139.6620  128.4310  142.9880 C   0  0  0  0  0  0  0  0  0  0  0  0
  139.5070  128.2730  141.7720 O   0  0  0  0  0  0  0  0  0  0  0  0
  137.5990  127.9120  144.3770 C   0  0  0  0  0  0  0  0  0  0  0  0
  136.7170  128.0670  143.1710 C   0  0  0  0  0  0  0  0  0  0  0  0
  137.0020  126.9250  145.3550 C   0  0  0  0  0  0  0  0  0  0  0  0
  140.4220  129.4040  143.4900 N   0  0  0  0  0  0  0  0  0  0  0  0
  140.8180  130.5510  142.6690 C   0  0  2  0  0  0  0  0  0  0  0  0
  141.7310  130.1860  141.5020 C   0  0  0  0  0  0  0  0  0  0  0  0
  141.4470  130.6150  140.3730 O   0  0  0  0  0  0  0  0  0  0  0  0
  141.4170  131.6470  143.5650 C   0  0  2  0  0  0  0  0  0  0  0  0
  140.4830  131.8910  144.7330 C   0  0  0  0  0  0  0  0  0  0  0  0
  141.5830  132.9190  142.7880 C   0  0  0  0  0  0  0  0  0  0  0  0
  141.1510  132.5000  145.8790 C   0  0  0  0  0  0  0  0  0  0  0  0
  142.8300  129.4390  141.6810 N   0  0  0  0  0  0  0  0  0  0  0  0
  143.6640  129.1330  140.5110 C   0  0  2  0  0  0  0  0  0  0  0  0
  143.1040  128.0310  139.6310 C   0  0  0  0  0  0  0  0  0  0  0  0
  143.6960  127.7400  138.5830 O   0  0  0  0  0  0  0  0  0  0  0  0
  145.0000  128.7180  141.1300 C   0  0  0  0  0  0  0  0  0  0  0  0
  144.6580  128.1840  142.4350 C   0  0  0  0  0  0  0  0  0  0  0  0
  143.4000  128.8380  142.9020 C   0  0  0  0  0  0  0  0  0  0  0  0
  139.3830  127.7910  139.2190 N   0  0  0  0  0  0  0  0  0  0  0  0
  138.1160  128.2490  138.6520 C   0  0  2  0  0  0  0  0  0  0  0  0
  138.2000  128.6530  137.1800 C   0  0  0  0  0  0  0  0  0  0  0  0
  137.3060  128.2460  136.4190 O   0  0  0  0  0  0  0  0  0  0  0  0
  137.5410  129.3900  139.5020 C   0  0  0  0  0  0  0  0  0  0  0  0
  136.0910  129.7740  139.2190 C   0  0  0  0  0  0  0  0  0  0  0  0
  135.3410  130.0540  140.4970 C   0  0  0  0  0  0  0  0  0  0  0  0
  136.0630  131.0030  138.3520 C   0  0  0  0  0  0  0  0  0  0  0  0
  139.1950  129.4280  136.7010 N   0  0  0  0  0  0  0  0  0  0  0  0
  139.1870  129.7830  135.2760 C   0  0  2  0  0  0  0  0  0  0  0  0
  139.6860  128.6860  134.3500 C   0  0  0  0  0  0  0  0  0  0  0  0
  139.9370  128.9560  133.1720 O   0  0  0  0  0  0  0  0  0  0  0  0
  140.1120  131.0020  135.2170 C   0  0  0  0  0  0  0  0  0  0  0  0
  141.0520  130.7850  136.3060 C   0  0  0  0  0  0  0  0  0  0  0  0
  140.2620  130.1570  137.4100 C   0  0  0  0  0  0  0  0  0  0  0  0
  129.6580  130.2330  130.4090 N   0  0  0  0  0  0  0  0  0  0  0  0
  129.5410  131.4770  129.6500 C   0  0  2  0  0  0  0  0  0  0  0  0
  130.2270  132.6560  130.3360 C   0  0  0  0  0  0  0  0  0  0  0  0
  131.1180  133.2870  129.7590 O   0  0  0  0  0  0  0  0  0  0  0  0
  128.0630  131.7980  129.4060 C   0  0  2  0  0  0  0  0  0  0  0  0
  127.3290  131.6290  130.6240 O   0  0  0  0  0  0  0  0  0  0  0  0
  127.4890  130.8820  128.3420 C   0  0  0  0  0  0  0  0  0  0  0  0
  129.8240  132.9680  131.5620 N   0  0  0  0  0  0  0  0  0  0  0  0
  130.3580  134.1330  132.2330 C   0  0  0  0  0  0  0  0  0  0  0  0
  129.3350  134.8750  133.0640 C   0  0  0  0  0  0  0  0  0  0  0  0
  129.7000  135.5350  134.0380 O   0  0  0  0  0  0  0  0  0  0  0  0
  128.0540  134.7850  132.7090 N   0  0  0  0  0  0  0  0  0  0  0  0
  127.0320  135.2250  133.6500 C   0  0  2  0  0  0  0  0  0  0  0  0
  126.9370  134.2760  134.8270 C   0  0  0  0  0  0  0  0  0  0  0  0
  126.6090  134.6960  135.9420 O   0  0  0  0  0  0  0  0  0  0  0  0
  125.6700  135.3310  132.9770 C   0  0  0  0  0  0  0  0  0  0  0  0
  124.6640  135.5520  133.9490 O   0  0  0  0  0  0  0  0  0  0  0  0
  127.1980  132.9930  134.5880 N   0  0  0  0  0  0  0  0  0  0  0  0
  127.2030  132.0050  135.6540 C   0  0  2  0  0  0  0  0  0  0  0  0
  128.4590  132.0850  136.5100 C   0  0  0  0  0  0  0  0  0  0  0  0
  128.4110  131.7250  137.6890 O   0  0  0  0  0  0  0  0  0  0  0  0
  127.0250  130.6120  135.0570 C   0  0  0  0  0  0  0  0  0  0  0  0
  128.0730  130.2810  134.0240 C   0  0  0  0  0  0  0  0  0  0  0  0
  128.9210  131.1420  133.7160 O   0  0  0  0  0  0  0  0  0  0  0  0
  128.0310  129.1520  133.5000 O   0  0  0  0  0  0  0  0  0  0  0  0
  129.5810  132.5490  135.9470 N   0  0  0  0  0  0  0  0  0  0  0  0
  130.7590  132.8070  136.7690 C   0  0  2  0  0  0  0  0  0  0  0  0
  130.4390  133.8360  137.8400 C   0  0  0  0  0  0  0  0  0  0  0  0
  130.9480  133.7550  138.9610 O   0  0  0  0  0  0  0  0  0  0  0  0
  131.9300  133.2860  135.9050 C   0  0  0  0  0  0  0  0  0  0  0  0
  133.3570  133.2570  136.4800 C   0  0  0  0  0  0  0  0  0  0  0  0
  134.3640  133.2160  135.3640 C   0  0  0  0  0  0  0  0  0  0  0  0
  133.6880  134.4240  137.3830 C   0  0  0  0  0  0  0  0  0  0  0  0
  129.6050  134.8180  137.5060 N   0  0  0  0  0  0  0  0  0  0  0  0
  129.1320  135.7400  138.5220 C   0  0  0  0  0  0  0  0  0  0  0  0
  128.3140  135.0370  139.5840 C   0  0  0  0  0  0  0  0  0  0  0  0
  128.4370  135.3280  140.7740 O   0  0  0  0  0  0  0  0  0  0  0  0
  130.7210  132.4720  141.7590 N   0  0  0  0  0  0  0  0  0  0  0  0
  131.4540  133.1040  142.8510 C   0  0  2  0  0  0  0  0  0  0  0  0
  130.5380  133.8120  143.8370 C   0  0  0  0  0  0  0  0  0  0  0  0
  131.0120  134.2580  144.8920 O   0  0  0  0  0  0  0  0  0  0  0  0
  132.4900  134.1140  142.3220 C   0  0  0  0  0  0  0  0  0  0  0  0
  133.3190  133.4910  141.2170 C   0  0  0  0  0  0  0  0  0  0  0  0
  131.8030  135.3660  141.8360 C   0  0  0  0  0  0  0  0  0  0  0  0
  128.5760  130.8560  146.7920 N   0  0  0  0  0  0  0  0  0  0  0  0
  129.2410  130.6270  148.0690 C   0  0  2  0  0  0  0  0  0  0  0  0
  128.9240  131.7400  149.0550 C   0  0  0  0  0  0  0  0  0  0  0  0
  128.5280  131.4780  150.1950 O   0  0  0  0  0  0  0  0  0  0  0  0
  130.7490  130.5140  147.8600 C   0  0  0  0  0  0  0  0  0  0  0  0
  131.4560  129.7370  148.9350 C   0  0  0  0  0  0  0  0  0  0  0  0
  131.6050  130.2590  150.2080 C   0  0  0  0  0  0  0  0  0  0  0  0
  131.9690  128.4840  148.6730 C   0  0  0  0  0  0  0  0  0  0  0  0
  132.2480  129.5480  151.1910 C   0  0  0  0  0  0  0  0  0  0  0  0
  132.6140  127.7690  149.6530 C   0  0  0  0  0  0  0  0  0  0  0  0
  132.7520  128.3010  150.9140 C   0  0  0  0  0  0  0  0  0  0  0  0
  128.6740  124.8450  145.1170 N   0  0  0  0  0  0  0  0  0  0  0  0
  128.9760  126.1420  145.7060 C   0  0  2  0  0  0  0  0  0  0  0  0
  127.9690  126.4770  146.7950 C   0  0  0  0  0  0  0  0  0  0  0  0
  128.3370  127.0000  147.8510 O   0  0  0  0  0  0  0  0  0  0  0  0
  128.9690  127.2130  144.6190 C   0  0  0  0  0  0  0  0  0  0  0  0
  130.1590  127.1490  143.6850 C   0  0  0  0  0  0  0  0  0  0  0  0
  131.4970  127.2090  144.3820 C   0  0  0  0  0  0  0  0  0  0  0  0
  131.8360  128.5310  144.8940 N   0  0  0  0  0  0  0  0  0  0  0  0
  132.9750  128.8040  145.5200 C   0  0  0  0  0  0  0  0  0  0  0  0
  133.8610  127.8420  145.7220 N   0  0  0  0  0  0  0  0  0  0  0  0
  133.2330  130.0300  145.9450 N   0  0  0  0  0  0  0  0  0  0  0  0
  143.2210  131.8060  159.5960 N   0  0  0  0  0  0  0  0  0  0  0  0
  142.3320  132.0320  158.4590 C   0  0  2  0  0  0  0  0  0  0  0  0
  143.0850  132.7640  157.3620 C   0  0  0  0  0  0  0  0  0  0  0  0
  142.8610  132.5160  156.1740 O   0  0  0  0  0  0  0  0  0  0  0  0
  141.0540  132.7990  158.8520 C   0  0  2  0  0  0  0  0  0  0  0  0
  141.3530  134.1940  159.3730 C   0  0  0  0  0  0  0  0  0  0  0  0
  140.3470  132.1120  159.9650 C   0  0  0  0  0  0  0  0  0  0  0  0
  140.1110  135.0480  159.5450 C   0  0  0  0  0  0  0  0  0  0  0  0
  144.0050  133.6560  157.7350 N   0  0  0  0  0  0  0  0  0  0  0  0
  144.8850  134.2600  156.7480 C   0  0  2  0  0  0  0  0  0  0  0  0
  145.8060  133.2150  156.1350 C   0  0  0  0  0  0  0  0  0  0  0  0
  145.9900  133.1810  154.9150 O   0  0  0  0  0  0  0  0  0  0  0  0
  145.6960  135.3830  157.3890 C   0  0  0  0  0  0  0  0  0  0  0  0
  144.8350  136.5550  157.8150 C   0  0  0  0  0  0  0  0  0  0  0  0
  143.8770  136.9150  157.1390 O   0  0  0  0  0  0  0  0  0  0  0  0
  145.1800  137.1590  158.9420 N   0  0  0  0  0  0  0  0  0  0  0  0
  144.1140  131.4370  153.6070 N   0  0  0  0  0  0  0  0  0  0  0  0
  144.0210  132.2030  152.3710 C   0  0  2  0  0  0  0  0  0  0  0  0
  145.3340  132.2030  151.5980 C   0  0  0  0  0  0  0  0  0  0  0  0
  145.3320  132.4240  150.3840 O   0  0  0  0  0  0  0  0  0  0  0  0
  143.6030  133.6390  152.6730 C   0  0  0  0  0  0  0  0  0  0  0  0
  142.1240  133.8330  152.8170 C   0  0  0  0  0  0  0  0  0  0  0  0
  141.2760  133.5990  151.7560 C   0  0  0  0  0  0  0  0  0  0  0  0
  141.5880  134.3060  153.9990 C   0  0  0  0  0  0  0  0  0  0  0  0
  139.9200  133.7960  151.8860 C   0  0  0  0  0  0  0  0  0  0  0  0
  140.2350  134.5060  154.1330 C   0  0  0  0  0  0  0  0  0  0  0  0
  139.4020  134.2530  153.0760 C   0  0  0  0  0  0  0  0  0  0  0  0
  146.4630  131.9900  152.2760 N   0  0  0  0  0  0  0  0  0  0  0  0
  147.7470  131.9690  151.5800 C   0  0  2  0  0  0  0  0  0  0  0  0
  148.0400  130.5830  151.0290 C   0  0  0  0  0  0  0  0  0  0  0  0
  148.4290  130.4300  149.8660 O   0  0  0  0  0  0  0  0  0  0  0  0
  148.8860  132.4350  152.5020 C   0  0  2  0  0  0  0  0  0  0  0  0
  148.5620  133.7700  153.1490 C   0  0  0  0  0  0  0  0  0  0  0  0
  150.1730  132.5550  151.7190 C   0  0  0  0  0  0  0  0  0  0  0  0
  149.0810  133.8890  154.5560 C   0  0  0  0  0  0  0  0  0  0  0  0
  145.4470  128.9540  147.6370 N   0  0  0  0  0  0  0  0  0  0  0  0
  145.8890  129.1710  146.2520 C   0  0  2  0  0  0  0  0  0  0  0  0
  147.3060  128.7040  145.9870 C   0  0  0  0  0  0  0  0  0  0  0  0
  147.6450  128.4190  144.8330 O   0  0  0  0  0  0  0  0  0  0  0  0
  145.7570  130.6860  146.0790 C   0  0  0  0  0  0  0  0  0  0  0  0
  144.7260  131.0870  147.0510 C   0  0  0  0  0  0  0  0  0  0  0  0
  144.8260  130.1550  148.2140 C   0  0  0  0  0  0  0  0  0  0  0  0
  137.4180  147.9910  153.2980 N   0  0  0  0  0  0  0  0  0  0  0  0
  138.6880  147.3160  153.5420 C   0  0  2  0  0  0  0  0  0  0  0  0
  138.9640  146.2730  152.4690 C   0  0  0  0  0  0  0  0  0  0  0  0
  140.0730  146.2080  151.9310 O   0  0  0  0  0  0  0  0  0  0  0  0
  138.6650  146.6740  154.9290 C   0  0  0  0  0  0  0  0  0  0  0  0
  139.8580  146.0210  155.6160 C   0  0  0  0  0  0  0  0  0  0  0  0
  139.6480  146.1120  157.1120 C   0  0  0  0  0  0  0  0  0  0  0  0
  140.0010  144.5810  155.2190 C   0  0  0  0  0  0  0  0  0  0  0  0
  137.9550  145.4690  152.1230 N   0  0  0  0  0  0  0  0  0  0  0  0
  138.1480  144.4340  151.1130 C   0  0  2  0  0  0  0  0  0  0  0  0
  138.2060  145.0280  149.7160 C   0  0  0  0  0  0  0  0  0  0  0  0
  138.6670  144.3690  148.7800 O   0  0  0  0  0  0  0  0  0  0  0  0
  137.0300  143.4070  151.1850 C   0  0  0  0  0  0  0  0  0  0  0  0
  135.7750  144.0410  151.0630 O   0  0  0  0  0  0  0  0  0  0  0  0
  141.8340  145.5270  149.4960 N   0  0  0  0  0  0  0  0  0  0  0  0
  142.5980  144.2960  149.6760 C   0  0  2  0  0  0  0  0  0  0  0  0
  142.6970  143.5080  148.3760 C   0  0  0  0  0  0  0  0  0  0  0  0
  143.7900  143.3150  147.8350 O   0  0  0  0  0  0  0  0  0  0  0  0
  141.9370  143.4560  150.7630 C   0  0  0  0  0  0  0  0  0  0  0  0
  142.2200  143.9250  152.1660 C   0  0  0  0  0  0  0  0  0  0  0  0
  142.0800  142.8300  153.1870 C   0  0  0  0  0  0  0  0  0  0  0  0
  141.0470  142.1360  153.1720 O   0  0  0  0  0  0  0  0  0  0  0  0
  142.9570  142.7080  154.0580 O   0  0  0  0  0  0  0  0  0  0  0  0
  141.5570  143.0590  147.8460 N   0  0  0  0  0  0  0  0  0  0  0  0
  141.5680  142.2580  146.6280 C   0  0  2  0  0  0  0  0  0  0  0  0
  141.9870  143.0470  145.3980 C   0  0  0  0  0  0  0  0  0  0  0  0
  142.3180  142.4350  144.3770 O   0  0  0  0  0  0  0  0  0  0  0  0
  140.1970  141.6350  146.3770 C   0  0  2  0  0  0  0  0  0  0  0  0
  140.2660  140.8080  145.2130 O   0  0  0  0  0  0  0  0  0  0  0  0
  139.1720  142.6990  146.1320 C   0  0  0  0  0  0  0  0  0  0  0  0
  141.9730  144.3770  145.4620 N   0  0  0  0  0  0  0  0  0  0  0  0
  142.4390  145.2160  144.3700 C   0  0  2  0  0  0  0  0  0  0  0  0
  143.8050  145.8250  144.6400 C   0  0  0  0  0  0  0  0  0  0  0  0
  144.2650  146.6530  143.8480 O   0  0  0  0  0  0  0  0  0  0  0  0
  141.4230  146.3230  144.0770 C   0  0  0  0  0  0  0  0  0  0  0  0
  140.1410  145.8410  143.4010 C   0  0  0  0  0  0  0  0  0  0  0  0
  138.9820  146.7710  143.6880 C   0  0  0  0  0  0  0  0  0  0  0  0
  140.3600  145.7000  141.9100 C   0  0  0  0  0  0  0  0  0  0  0  0
  144.4610  145.4460  145.7400 N   0  0  0  0  0  0  0  0  0  0  0  0
  145.8280  145.8950  145.9690 C   0  0  2  0  0  0  0  0  0  0  0  0
  146.7630  145.3570  144.8970 C   0  0  0  0  0  0  0  0  0  0  0  0
  147.6910  146.0490  144.4680 O   0  0  0  0  0  0  0  0  0  0  0  0
  146.3100  145.4690  147.3540 C   0  0  0  0  0  0  0  0  0  0  0  0
  147.7600  145.8050  147.5920 C   0  0  0  0  0  0  0  0  0  0  0  0
  148.1340  147.0730  148.0000 C   0  0  0  0  0  0  0  0  0  0  0  0
  148.7550  144.8590  147.3980 C   0  0  0  0  0  0  0  0  0  0  0  0
  149.4550  147.3910  148.2080 C   0  0  0  0  0  0  0  0  0  0  0  0
  150.0750  145.1690  147.5980 C   0  0  0  0  0  0  0  0  0  0  0  0
  150.4210  146.4350  148.0030 C   0  0  0  0  0  0  0  0  0  0  0  0
  151.7420  146.7440  148.2070 O   0  0  0  0  0  0  0  0  0  0  0  0
  146.5420  144.1180  144.4600 N   0  0  0  0  0  0  0  0  0  0  0  0
  147.3540  143.5580  143.3890 C   0  0  2  0  0  0  0  0  0  0  0  0
  147.0830  144.2320  142.0550 C   0  0  0  0  0  0  0  0  0  0  0  0
  147.8230  143.9970  141.0950 O   0  0  0  0  0  0  0  0  0  0  0  0
  147.1040  142.0590  143.2620 C   0  0  0  0  0  0  0  0  0  0  0  0
  147.4590  141.6070  141.9690 O   0  0  0  0  0  0  0  0  0  0  0  0
  146.0310  145.0420  141.9680 N   0  0  0  0  0  0  0  0  0  0  0  0
  145.6970  145.7930  140.7670 C   0  0  2  0  0  0  0  0  0  0  0  0
  146.0230  147.2730  140.8880 C   0  0  0  0  0  0  0  0  0  0  0  0
  146.4070  147.9000  139.8980 O   0  0  0  0  0  0  0  0  0  0  0  0
  144.2110  145.6220  140.4390 C   0  0  0  0  0  0  0  0  0  0  0  0
  143.7400  146.1290  139.0790 C   0  0  0  0  0  0  0  0  0  0  0  0
  144.6640  145.6470  137.9810 C   0  0  0  0  0  0  0  0  0  0  0  0
  142.3260  145.6670  138.8200 C   0  0  0  0  0  0  0  0  0  0  0  0
  149.6240  147.5810  140.6550 N   0  0  0  0  0  0  0  0  0  0  0  0
  150.0010  147.0660  139.3520 C   0  0  2  0  0  0  0  0  0  0  0  0
  150.1810  148.1720  138.3260 C   0  0  0  0  0  0  0  0  0  0  0  0
  151.0770  148.0830  137.4810 O   0  0  0  0  0  0  0  0  0  0  0  0
  148.9460  146.0720  138.8660 C   0  0  0  0  0  0  0  0  0  0  0  0
  153.1180  141.4630  149.6040 N   0  0  0  0  0  0  0  0  0  0  0  0
  152.0360  140.6660  150.1780 C   0  0  2  0  0  0  0  0  0  0  0  0
  152.5230  139.9370  151.4230 C   0  0  0  0  0  0  0  0  0  0  0  0
  151.8820  139.9760  152.4800 O   0  0  0  0  0  0  0  0  0  0  0  0
  151.4810  139.6790  149.1350 C   0  0  2  0  0  0  0  0  0  0  0  0
  151.0130  140.4160  147.8830 C   0  0  0  0  0  0  0  0  0  0  0  0
  150.3480  138.8680  149.7290 C   0  0  0  0  0  0  0  0  0  0  0  0
  149.8800  141.3650  148.1200 C   0  0  0  0  0  0  0  0  0  0  0  0
  153.5940  142.2510  154.5590 N   0  0  0  0  0  0  0  0  0  0  0  0
  152.4370  142.6040  155.3620 C   0  0  0  0  0  0  0  0  0  0  0  0
  151.8890  141.4180  156.1290 C   0  0  0  0  0  0  0  0  0  0  0  0
  151.3770  141.5660  157.2400 O   0  0  0  0  0  0  0  0  0  0  0  0
  151.9710  140.2270  155.5340 N   0  0  0  0  0  0  0  0  0  0  0  0
  151.5270  139.0320  156.2300 C   0  0  0  0  0  0  0  0  0  0  0  0
  152.3930  138.6930  157.4270 C   0  0  0  0  0  0  0  0  0  0  0  0
  151.8810  138.3500  158.4960 O   0  0  0  0  0  0  0  0  0  0  0  0
  148.8860  147.5270  156.2680 N   0  0  0  0  0  0  0  0  0  0  0  0
  147.9050  146.5340  156.6630 C   0  0  2  0  0  0  0  0  0  0  0  0
  148.0050  146.1220  158.1210 C   0  0  0  0  0  0  0  0  0  0  0  0
  147.2700  145.2240  158.5360 O   0  0  0  0  0  0  0  0  0  0  0  0
  148.0490  145.3030  155.7770 C   0  0  0  0  0  0  0  0  0  0  0  0
  147.6460  145.5310  154.3540 C   0  0  0  0  0  0  0  0  0  0  0  0
  146.3310  145.8010  154.0300 C   0  0  0  0  0  0  0  0  0  0  0  0
  148.5800  145.4630  153.3360 C   0  0  0  0  0  0  0  0  0  0  0  0
  145.9570  146.0050  152.7210 C   0  0  0  0  0  0  0  0  0  0  0  0
  148.2090  145.6650  152.0250 C   0  0  0  0  0  0  0  0  0  0  0  0
  146.8980  145.9360  151.7180 C   0  0  0  0  0  0  0  0  0  0  0  0
  144.7180  146.7550  159.4070 N   0  0  0  0  0  0  0  0  0  0  0  0
  143.6480  145.8950  158.9080 C   0  0  2  0  0  0  0  0  0  0  0  0
  143.8210  144.4550  159.3780 C   0  0  0  0  0  0  0  0  0  0  0  0
  142.8490  143.8050  159.7750 O   0  0  0  0  0  0  0  0  0  0  0  0
  143.5850  145.9590  157.3830 C   0  0  0  0  0  0  0  0  0  0  0  0
  143.2310  147.3130  156.8460 C   0  0  0  0  0  0  0  0  0  0  0  0
  142.4460  148.1840  157.5840 C   0  0  0  0  0  0  0  0  0  0  0  0
  143.6620  147.7060  155.5910 C   0  0  0  0  0  0  0  0  0  0  0  0
  142.1120  149.4230  157.0890 C   0  0  0  0  0  0  0  0  0  0  0  0
  143.3340  148.9450  155.0920 C   0  0  0  0  0  0  0  0  0  0  0  0
  142.5570  149.8040  155.8410 C   0  0  0  0  0  0  0  0  0  0  0  0
  145.0500  143.9340  159.3300 N   0  0  0  0  0  0  0  0  0  0  0  0
  145.3000  142.5650  159.7670 C   0  0  2  0  0  0  0  0  0  0  0  0
  145.0060  142.3650  161.2410 C   0  0  0  0  0  0  0  0  0  0  0  0
  144.7870  141.2280  161.6700 O   0  0  0  0  0  0  0  0  0  0  0  0
  146.7490  142.1760  159.4960 C   0  0  0  0  0  0  0  0  0  0  0  0
  146.9630  141.6910  158.0880 C   0  0  0  0  0  0  0  0  0  0  0  0
  145.9790  141.6650  157.3220 O   0  0  0  0  0  0  0  0  0  0  0  0
  148.1090  141.3480  157.7340 O   0  0  0  0  0  0  0  0  0  0  0  0
  140.6340  142.7300  162.3500 N   0  0  0  0  0  0  0  0  0  0  0  0
  139.7450  141.5800  162.2000 C   0  0  2  0  0  0  0  0  0  0  0  0
  139.6570  140.7320  163.4640 C   0  0  0  0  0  0  0  0  0  0  0  0
  138.5360  140.3380  163.8280 O   0  0  0  0  0  0  0  0  0  0  0  0
  140.1670  140.7640  160.9740 C   0  0  0  0  0  0  0  0  0  0  0  0
  140.2020  141.5810  159.7010 C   0  0  0  0  0  0  0  0  0  0  0  0
  140.3580  140.6970  158.4720 C   0  0  0  0  0  0  0  0  0  0  0  0
  139.7440  141.2370  157.2530 N   0  0  0  0  0  0  0  0  0  0  0  0
  138.4510  141.5280  157.0890 C   0  0  0  0  0  0  0  0  0  0  0  0
  137.5620  141.3090  158.0490 N   0  0  0  0  0  0  0  0  0  0  0  0
  138.0330  142.0110  155.9290 N   0  0  0  0  0  0  0  0  0  0  0  0
  130.7470  140.0900  156.8360 N   0  0  0  0  0  0  0  0  0  0  0  0
  132.0240  140.2280  156.1430 C   0  0  2  0  0  0  0  0  0  0  0  0
  131.9640  139.5720  154.7710 C   0  0  0  0  0  0  0  0  0  0  0  0
  132.5870  140.0570  153.8220 O   0  0  0  0  0  0  0  0  0  0  0  0
  133.1900  139.6680  156.9680 C   0  0  2  0  0  0  0  0  0  0  0  0
  134.4170  139.9960  156.3090 O   0  0  0  0  0  0  0  0  0  0  0  0
  133.1420  138.1620  157.0980 C   0  0  0  0  0  0  0  0  0  0  0  0
  132.8080  141.4560  151.5750 N   0  0  0  0  0  0  0  0  0  0  0  0
  133.7570  140.9340  150.5990 C   0  0  2  0  0  0  0  0  0  0  0  0
  133.1030  140.6570  149.2550 C   0  0  0  0  0  0  0  0  0  0  0  0
  133.8120  140.4280  148.2700 O   0  0  0  0  0  0  0  0  0  0  0  0
  134.4220  139.6550  151.1090 C   0  0  0  0  0  0  0  0  0  0  0  0
  135.2150  139.8720  152.3770 C   0  0  0  0  0  0  0  0  0  0  0  0
  136.2750  140.4790  152.3560 O   0  0  0  0  0  0  0  0  0  0  0  0
  134.7290  139.3300  153.4810 N   0  0  0  0  0  0  0  0  0  0  0  0
  131.7730  140.6540  149.1960 N   0  0  0  0  0  0  0  0  0  0  0  0
  131.0610  140.4590  147.9410 C   0  0  2  0  0  0  0  0  0  0  0  0
  130.6070  141.7790  147.3320 C   0  0  0  0  0  0  0  0  0  0  0  0
  130.8470  142.0270  146.1460 O   0  0  0  0  0  0  0  0  0  0  0  0
  129.8600  139.5360  148.1620 C   0  0  0  0  0  0  0  0  0  0  0  0
  129.0350  139.3130  146.9360 C   0  0  0  0  0  0  0  0  0  0  0  0
  129.6350  139.0030  145.7310 C   0  0  0  0  0  0  0  0  0  0  0  0
  127.6610  139.4170  146.9890 C   0  0  0  0  0  0  0  0  0  0  0  0
  128.8810  138.8030  144.6070 C   0  0  0  0  0  0  0  0  0  0  0  0
  126.9040  139.2180  145.8670 C   0  0  0  0  0  0  0  0  0  0  0  0
  127.5140  138.9130  144.6740 C   0  0  0  0  0  0  0  0  0  0  0  0
  134.1730  144.6630  146.4320 N   0  0  0  0  0  0  0  0  0  0  0  0
  134.9460  144.6680  145.1820 C   0  0  2  0  0  0  0  0  0  0  0  0
  134.1350  145.0350  143.9520 C   0  0  0  0  0  0  0  0  0  0  0  0
  134.6830  145.6480  143.0300 O   0  0  0  0  0  0  0  0  0  0  0  0
  135.4820  143.2370  145.1050 C   0  0  0  0  0  0  0  0  0  0  0  0
  135.5640  142.8010  146.5010 C   0  0  0  0  0  0  0  0  0  0  0  0
  134.4100  143.4350  147.2070 C   0  0  0  0  0  0  0  0  0  0  0  0
  132.8470  144.6860  143.9060 N   0  0  0  0  0  0  0  0  0  0  0  0
  132.0370  145.0010  142.7320 C   0  0  2  0  0  0  0  0  0  0  0  0
  131.8780  146.5060  142.5530 C   0  0  0  0  0  0  0  0  0  0  0  0
  132.0610  147.0300  141.4500 O   0  0  0  0  0  0  0  0  0  0  0  0
  130.6670  144.3350  142.8360 C   0  0  0  0  0  0  0  0  0  0  0  0
  130.6160  142.8130  142.8590 C   0  0  0  0  0  0  0  0  0  0  0  0
  129.2330  142.3630  143.2580 C   0  0  0  0  0  0  0  0  0  0  0  0
  130.9820  142.2650  141.5020 C   0  0  0  0  0  0  0  0  0  0  0  0
  131.5300  147.2150  143.6280 N   0  0  0  0  0  0  0  0  0  0  0  0
  131.3780  148.6640  143.5500 C   0  0  2  0  0  0  0  0  0  0  0  0
  132.7190  149.3300  143.2740 C   0  0  0  0  0  0  0  0  0  0  0  0
  132.8220  150.2200  142.4220 O   0  0  0  0  0  0  0  0  0  0  0  0
  130.7260  149.1970  144.8370 C   0  0  2  0  0  0  0  0  0  0  0  0
  129.2470  148.8250  144.8680 C   0  0  0  0  0  0  0  0  0  0  0  0
  130.8990  150.6910  144.9490 C   0  0  0  0  0  0  0  0  0  0  0  0
  128.5090  149.3590  146.0670 C   0  0  0  0  0  0  0  0  0  0  0  0
  133.7710  148.8960  143.9720 N   0  0  0  0  0  0  0  0  0  0  0  0
  135.0940  149.4760  143.7660 C   0  0  2  0  0  0  0  0  0  0  0  0
  135.6580  149.1410  142.3950 C   0  0  0  0  0  0  0  0  0  0  0  0
  136.5860  149.8080  141.9350 O   0  0  0  0  0  0  0  0  0  0  0  0
  136.0560  148.9950  144.8460 C   0  0  0  0  0  0  0  0  0  0  0  0
  135.1360  148.1040  141.7410 N   0  0  0  0  0  0  0  0  0  0  0  0
  135.5470  147.8200  140.3800 C   0  0  0  0  0  0  0  0  0  0  0  0
  135.0880  148.8610  139.3860 C   0  0  0  0  0  0  0  0  0  0  0  0
  135.8090  149.1690  138.4340 O   0  0  0  0  0  0  0  0  0  0  0  0
  133.8830  149.4020  139.5760 N   0  0  0  0  0  0  0  0  0  0  0  0
  133.4030  150.4680  138.7060 C   0  0  2  0  0  0  0  0  0  0  0  0
  134.1680  151.7610  138.9500 C   0  0  0  0  0  0  0  0  0  0  0  0
  134.6050  152.4200  138.0000 O   0  0  0  0  0  0  0  0  0  0  0  0
  131.9070  150.6850  138.9180 C   0  0  0  0  0  0  0  0  0  0  0  0
  137.1040  152.0890  140.0710 N   0  0  0  0  0  0  0  0  0  0  0  0
  138.5290  151.9650  139.7970 C   0  0  2  0  0  0  0  0  0  0  0  0
  138.9030  152.5120  138.4280 C   0  0  0  0  0  0  0  0  0  0  0  0
  140.0290  152.9850  138.2460 O   0  0  0  0  0  0  0  0  0  0  0  0
  138.9520  150.5000  139.9070 C   0  0  0  0  0  0  0  0  0  0  0  0
  140.4340  150.2850  139.8610 C   0  0  0  0  0  0  0  0  0  0  0  0
  141.1850  150.3400  141.0160 C   0  0  0  0  0  0  0  0  0  0  0  0
  141.0710  150.0040  138.6660 C   0  0  0  0  0  0  0  0  0  0  0  0
  142.5410  150.1390  140.9790 C   0  0  0  0  0  0  0  0  0  0  0  0
  142.4280  149.8040  138.6230 C   0  0  0  0  0  0  0  0  0  0  0  0
  143.1650  149.8710  139.7790 C   0  0  0  0  0  0  0  0  0  0  0  0
  137.9950  152.4630  137.4600 N   0  0  0  0  0  0  0  0  0  0  0  0
  138.3580  152.7970  136.0910 C   0  0  2  0  0  0  0  0  0  0  0  0
  138.2570  154.2820  135.7680 C   0  0  0  0  0  0  0  0  0  0  0  0
  138.6970  154.6870  134.6880 O   0  0  0  0  0  0  0  0  0  0  0  0
  137.4990  152.0030  135.1060 C   0  0  0  0  0  0  0  0  0  0  0  0
  138.2080  150.7710  134.5850 C   0  0  0  0  0  0  0  0  0  0  0  0
  139.4260  150.6430  134.8240 O   0  0  0  0  0  0  0  0  0  0  0  0
  137.5520  149.9330  133.9330 O   0  0  0  0  0  0  0  0  0  0  0  0
  2  1  1  0
  3  2  1  0
  4  3  2  0
  5  3  1  0
  6  5  1  1
  7  6  1  0
  8  7  2  0
  9  6  1  0
 10  9  1  0
  9 11  1  6
 12 10  1  0
 13  7  1  0
 14 13  1  0
 15 14  1  0
 16 15  2  0
 18 17  1  1
 19 18  1  0
 20 19  2  0
 21 18  1  0
 22 21  1  0
 23 21  1  0
 24 19  1  0
 25 24  1  1
 26 25  1  0
 27 26  2  0
 28 25  1  0
 29 28  1  0
 28 30  1  6
 31 29  1  0
 32 26  1  0
 33 32  1  0
 33 34  1  1
 35 34  2  0
 36 33  1  0
 37 36  1  0
 38 32  1  0
 38 37  1  0
 40 39  1  1
 41 40  1  0
 42 41  2  0
 43 40  1  0
 44 43  1  0
 45 44  1  0
 46 44  1  0
 47 41  1  0
 48 47  1  0
 48 49  1  6
 50 49  2  0
 51 48  1  0
 52 51  1  0
 53 52  1  0
 53 47  1  0
 55 54  1  1
 56 55  1  0
 57 56  2  0
 58 55  1  0
 59 58  1  0
 58 60  1  6
 61 56  1  0
 62 61  1  0
 63 62  1  0
 64 63  2  0
 65 63  1  0
 66 65  1  0
 67 66  1  0
 68 67  2  0
 66 69  1  6
 70 69  1  0
 71 67  1  0
 72 71  1  0
 73 72  1  0
 74 73  2  0
 72 75  1  6
 76 75  1  0
 77 76  2  0
 78 76  1  0
 79 73  1  0
 80 79  1  0
 81 80  1  0
 82 81  2  0
 80 83  1  6
 84 83  1  0
 85 84  1  0
 86 84  1  0
 87 81  1  0
 88 87  1  0
 89 88  1  0
 90 89  2  0
 92 91  1  6
 93 92  1  0
 94 93  2  0
 95 92  1  0
 96 95  1  0
 97 95  1  0
 99 98  1  6
100 99  1  0
101100  2  0
102 99  1  0
103102  1  0
104103  2  0
105103  1  0
106104  1  0
107105  2  0
108107  1  0
108106  2  0
110109  1  6
111110  1  0
112111  2  0
113110  1  0
114113  1  0
115114  1  0
116115  1  0
117116  1  0
118117  1  0
119117  2  0
121120  1  1
122121  1  0
123122  2  0
124121  1  0
125124  1  0
124126  1  1
127125  1  0
128122  1  0
129128  1  0
130129  1  0
131130  2  0
129132  1  1
133132  1  0
134133  2  0
135133  1  0
137136  1  1
138137  1  0
139138  2  0
140137  1  0
141140  1  0
142141  2  0
143141  1  0
144142  1  0
145143  2  0
146144  2  0
146145  1  0
147138  1  0
148147  1  1
149148  1  0
150149  2  0
151148  1  0
152151  1  0
151153  1  6
154152  1  0
156155  1  0
156157  1  1
158157  2  0
159156  1  0
160159  1  0
161155  1  0
161160  1  0
163162  1  6
164163  1  0
165164  2  0
166163  1  0
167166  1  0
168167  1  0
169167  1  0
170164  1  0
171170  1  0
172171  1  0
173172  2  0
171174  1  6
175174  1  0
177176  1  6
178177  1  0
179178  2  0
180177  1  0
181180  1  0
182181  1  0
183182  2  0
184182  1  0
185178  1  0
186185  1  1
187186  1  0
188187  2  0
189186  1  0
190189  1  0
189191  1  6
192187  1  0
193192  1  0
194193  1  0
195194  2  0
193196  1  1
197196  1  0
198197  1  0
199197  1  0
200194  1  0
201200  1  0
202201  1  0
203202  2  0
201204  1  1
205204  1  0
206205  2  0
207205  1  0
208206  1  0
209207  2  0
210209  1  0
210208  2  0
211210  1  0
212202  1  0
213212  1  0
214213  1  0
215214  2  0
213216  1  6
217216  1  0
218214  1  0
219218  1  0
220219  1  0
221220  2  0
219222  1  1
223222  1  0
224223  1  0
225223  1  0
227226  1  0
228227  1  0
229228  2  0
227230  1  6
232231  1  6
233232  1  0
234233  2  0
235232  1  0
236235  1  0
235237  1  1
238236  1  0
240239  1  0
241240  1  0
242241  2  0
243241  1  0
244243  1  0
245244  1  0
246245  2  0
248247  1  6
249248  1  0
250249  2  0
251248  1  0
252251  1  0
253252  2  0
254252  1  0
255253  1  0
256254  2  0
257255  2  0
257256  1  0
259258  1  6
260259  1  0
261260  2  0
262259  1  0
263262  1  0
264263  2  0
265263  1  0
266264  1  0
267265  2  0
268267  1  0
268266  2  0
269260  1  0
270269  1  0
271270  1  0
272271  2  0
270273  1  1
274273  1  0
275274  2  0
276274  1  0
278277  1  1
279278  1  0
280279  2  0
281278  1  0
282281  1  0
283282  1  0
284283  1  0
285284  1  0
286285  1  0
287285  2  0
289288  1  1
290289  1  0
291290  2  0
292289  1  0
293292  1  0
292294  1  6
296295  1  1
297296  1  0
298297  2  0
299296  1  0
300299  1  0
301300  2  0
302300  1  0
303297  1  0
304303  1  0
305304  1  0
306305  2  0
304307  1  1
308307  1  0
309308  2  0
310308  1  0
311309  1  0
312310  2  0
313312  1  0
313311  2  0
315314  1  0
315316  1  6
317316  2  0
318315  1  0
319318  1  0
320319  1  0
320314  1  0
321316  1  0
322321  1  0
323322  1  0
324323  2  0
322325  1  1
326325  1  0
327326  1  0
328326  1  0
329323  1  0
330329  1  1
331330  1  0
332331  2  0
333330  1  0
334333  1  0
333335  1  6
336334  1  0
337331  1  0
338337  1  0
339338  1  0
340339  2  0
338341  1  1
342339  1  0
343342  1  0
344343  1  0
345344  2  0
346344  1  0
347346  1  0
348347  1  0
349348  2  0
347350  1  1
352351  1  6
353352  1  0
354353  2  0
355352  1  0
356355  1  0
357356  2  0
358356  1  0
359357  1  0
360358  2  0
361360  1  0
361359  2  0
362353  1  0
363362  1  0
364363  1  0
365364  2  0
363366  1  6
367366  1  0
368367  2  0
369367  1  0
M  END
$$$$
