
     RDKit          3D

109104  0  0  0  0  0  0  0  0999 V2000
  129.8240  132.9680  131.5620 N   0  0  0  0  0  0  0  0  0  0  0  0
  130.3580  134.1330  132.2330 C   0  0  0  0  0  0  0  0  0  0  0  0
  129.3350  134.8750  133.0640 C   0  0  0  0  0  0  0  0  0  0  0  0
  129.7000  135.5350  134.0380 O   0  0  0  0  0  0  0  0  0  0  0  0
  128.0540  134.7850  132.7090 N   0  0  0  0  0  0  0  0  0  0  0  0
  127.0320  135.2250  133.6500 C   0  0  2  0  0  0  0  0  0  0  0  0
  126.9370  134.2760  134.8270 C   0  0  0  0  0  0  0  0  0  0  0  0
  126.6090  134.6960  135.9420 O   0  0  0  0  0  0  0  0  0  0  0  0
  125.6700  135.3310  132.9770 C   0  0  0  0  0  0  0  0  0  0  0  0
  124.6640  135.5520  133.9490 O   0  0  0  0  0  0  0  0  0  0  0  0
  127.1980  132.9930  134.5880 N   0  0  0  0  0  0  0  0  0  0  0  0
  127.2030  132.0050  135.6540 C   0  0  2  0  0  0  0  0  0  0  0  0
  128.4590  132.0850  136.5100 C   0  0  0  0  0  0  0  0  0  0  0  0
  128.4110  131.7250  137.6890 O   0  0  0  0  0  0  0  0  0  0  0  0
  127.0250  130.6120  135.0570 C   0  0  0  0  0  0  0  0  0  0  0  0
  128.0730  130.2810  134.0240 C   0  0  0  0  0  0  0  0  0  0  0  0
  128.9210  131.1420  133.7160 O   0  0  0  0  0  0  0  0  0  0  0  0
  128.0310  129.1520  133.5000 O   0  0  0  0  0  0  0  0  0  0  0  0
  129.5810  132.5490  135.9470 N   0  0  0  0  0  0  0  0  0  0  0  0
  130.7590  132.8070  136.7690 C   0  0  2  0  0  0  0  0  0  0  0  0
  130.4390  133.8360  137.8400 C   0  0  0  0  0  0  0  0  0  0  0  0
  130.9480  133.7550  138.9610 O   0  0  0  0  0  0  0  0  0  0  0  0
  131.9300  133.2860  135.9050 C   0  0  0  0  0  0  0  0  0  0  0  0
  133.3570  133.2570  136.4800 C   0  0  0  0  0  0  0  0  0  0  0  0
  134.3640  133.2160  135.3640 C   0  0  0  0  0  0  0  0  0  0  0  0
  133.6880  134.4240  137.3830 C   0  0  0  0  0  0  0  0  0  0  0  0
  129.6050  134.8180  137.5060 N   0  0  0  0  0  0  0  0  0  0  0  0
  129.1320  135.7400  138.5220 C   0  0  0  0  0  0  0  0  0  0  0  0
  128.3140  135.0370  139.5840 C   0  0  0  0  0  0  0  0  0  0  0  0
  128.4370  135.3280  140.7740 O   0  0  0  0  0  0  0  0  0  0  0  0
  127.4710  134.0910  139.1670 N   0  0  0  0  0  0  0  0  0  0  0  0
  126.6870  133.3230  140.1290 C   0  0  2  0  0  0  0  0  0  0  0  0
  127.5450  132.2820  140.8350 C   0  0  0  0  0  0  0  0  0  0  0  0
  127.3050  131.9630  142.0050 O   0  0  0  0  0  0  0  0  0  0  0  0
  125.5090  132.6540  139.4260 C   0  0  0  0  0  0  0  0  0  0  0  0
  124.1990  133.4300  139.3760 C   0  0  0  0  0  0  0  0  0  0  0  0
  123.2240  132.7230  138.4600 C   0  0  0  0  0  0  0  0  0  0  0  0
  123.6200  133.5800  140.7660 C   0  0  0  0  0  0  0  0  0  0  0  0
  130.7210  132.4720  141.7590 N   0  0  0  0  0  0  0  0  0  0  0  0
  131.4540  133.1040  142.8510 C   0  0  2  0  0  0  0  0  0  0  0  0
  130.5380  133.8120  143.8370 C   0  0  0  0  0  0  0  0  0  0  0  0
  131.0120  134.2580  144.8920 O   0  0  0  0  0  0  0  0  0  0  0  0
  132.4900  134.1140  142.3220 C   0  0  0  0  0  0  0  0  0  0  0  0
  133.3190  133.4910  141.2170 C   0  0  0  0  0  0  0  0  0  0  0  0
  131.8030  135.3660  141.8360 C   0  0  0  0  0  0  0  0  0  0  0  0
  129.2470  133.9390  143.5300 N   0  0  0  0  0  0  0  0  0  0  0  0
  128.2960  134.5270  144.4620 C   0  0  2  0  0  0  0  0  0  0  0  0
  127.4610  133.4950  145.1960 C   0  0  0  0  0  0  0  0  0  0  0  0
  126.8630  133.8290  146.2230 O   0  0  0  0  0  0  0  0  0  0  0  0
  127.3490  135.4870  143.7390 C   0  0  0  0  0  0  0  0  0  0  0  0
  126.5120  134.1700  149.0170 N   0  0  0  0  0  0  0  0  0  0  0  0
  125.0950  134.3460  149.3310 C   0  0  2  0  0  0  0  0  0  0  0  0
  124.5920  133.2490  150.2600 C   0  0  0  0  0  0  0  0  0  0  0  0
  123.9660  133.5310  151.2860 O   0  0  0  0  0  0  0  0  0  0  0  0
  124.2690  134.3770  148.0450 C   0  0  0  0  0  0  0  0  0  0  0  0
  124.2450  135.6970  147.2740 C   0  0  0  0  0  0  0  0  0  0  0  0
  124.1040  135.4540  145.7850 C   0  0  0  0  0  0  0  0  0  0  0  0
  123.1170  136.5760  147.7790 C   0  0  0  0  0  0  0  0  0  0  0  0
  131.7730  140.6540  149.1960 N   0  0  0  0  0  0  0  0  0  0  0  0
  131.0610  140.4590  147.9410 C   0  0  2  0  0  0  0  0  0  0  0  0
  130.6070  141.7790  147.3320 C   0  0  0  0  0  0  0  0  0  0  0  0
  130.8470  142.0270  146.1460 O   0  0  0  0  0  0  0  0  0  0  0  0
  129.8600  139.5360  148.1620 C   0  0  0  0  0  0  0  0  0  0  0  0
  129.0350  139.3130  146.9360 C   0  0  0  0  0  0  0  0  0  0  0  0
  129.6350  139.0030  145.7310 C   0  0  0  0  0  0  0  0  0  0  0  0
  127.6610  139.4170  146.9890 C   0  0  0  0  0  0  0  0  0  0  0  0
  128.8810  138.8030  144.6070 C   0  0  0  0  0  0  0  0  0  0  0  0
  126.9040  139.2180  145.8670 C   0  0  0  0  0  0  0  0  0  0  0  0
  127.5140  138.9130  144.6740 C   0  0  0  0  0  0  0  0  0  0  0  0
  134.1730  144.6630  146.4320 N   0  0  0  0  0  0  0  0  0  0  0  0
  134.9460  144.6680  145.1820 C   0  0  2  0  0  0  0  0  0  0  0  0
  134.1350  145.0350  143.9520 C   0  0  0  0  0  0  0  0  0  0  0  0
  134.6830  145.6480  143.0300 O   0  0  0  0  0  0  0  0  0  0  0  0
  135.4820  143.2370  145.1050 C   0  0  0  0  0  0  0  0  0  0  0  0
  135.5640  142.8010  146.5010 C   0  0  0  0  0  0  0  0  0  0  0  0
  134.4100  143.4350  147.2070 C   0  0  0  0  0  0  0  0  0  0  0  0
  132.8470  144.6860  143.9060 N   0  0  0  0  0  0  0  0  0  0  0  0
  132.0370  145.0010  142.7320 C   0  0  2  0  0  0  0  0  0  0  0  0
  131.8780  146.5060  142.5530 C   0  0  0  0  0  0  0  0  0  0  0  0
  132.0610  147.0300  141.4500 O   0  0  0  0  0  0  0  0  0  0  0  0
  130.6670  144.3350  142.8360 C   0  0  0  0  0  0  0  0  0  0  0  0
  130.6160  142.8130  142.8590 C   0  0  0  0  0  0  0  0  0  0  0  0
  129.2330  142.3630  143.2580 C   0  0  0  0  0  0  0  0  0  0  0  0
  130.9820  142.2650  141.5020 C   0  0  0  0  0  0  0  0  0  0  0  0
  131.5300  147.2150  143.6280 N   0  0  0  0  0  0  0  0  0  0  0  0
  131.3780  148.6640  143.5500 C   0  0  2  0  0  0  0  0  0  0  0  0
  132.7190  149.3300  143.2740 C   0  0  0  0  0  0  0  0  0  0  0  0
  132.8220  150.2200  142.4220 O   0  0  0  0  0  0  0  0  0  0  0  0
  130.7260  149.1970  144.8370 C   0  0  2  0  0  0  0  0  0  0  0  0
  129.2470  148.8250  144.8680 C   0  0  0  0  0  0  0  0  0  0  0  0
  130.8990  150.6910  144.9490 C   0  0  0  0  0  0  0  0  0  0  0  0
  128.5090  149.3590  146.0670 C   0  0  0  0  0  0  0  0  0  0  0  0
  135.1360  148.1040  141.7410 N   0  0  0  0  0  0  0  0  0  0  0  0
  135.5470  147.8200  140.3800 C   0  0  0  0  0  0  0  0  0  0  0  0
  135.0880  148.8610  139.3860 C   0  0  0  0  0  0  0  0  0  0  0  0
  135.8090  149.1690  138.4340 O   0  0  0  0  0  0  0  0  0  0  0  0
  133.8830  149.4020  139.5760 N   0  0  0  0  0  0  0  0  0  0  0  0
  133.4030  150.4680  138.7060 C   0  0  2  0  0  0  0  0  0  0  0  0
  134.1680  151.7610  138.9500 C   0  0  0  0  0  0  0  0  0  0  0  0
  134.6050  152.4200  138.0000 O   0  0  0  0  0  0  0  0  0  0  0  0
  131.9070  150.6850  138.9180 C   0  0  0  0  0  0  0  0  0  0  0  0
  137.9950  152.4630  137.4600 N   0  0  0  0  0  0  0  0  0  0  0  0
  138.3580  152.7970  136.0910 C   0  0  2  0  0  0  0  0  0  0  0  0
  138.2570  154.2820  135.7680 C   0  0  0  0  0  0  0  0  0  0  0  0
  138.6970  154.6870  134.6880 O   0  0  0  0  0  0  0  0  0  0  0  0
  137.4990  152.0030  135.1060 C   0  0  0  0  0  0  0  0  0  0  0  0
  138.2080  150.7710  134.5850 C   0  0  0  0  0  0  0  0  0  0  0  0
  139.4260  150.6430  134.8240 O   0  0  0  0  0  0  0  0  0  0  0  0
  137.5520  149.9330  133.9330 O   0  0  0  0  0  0  0  0  0  0  0  0
  2  1  1  0
  3  2  1  0
  4  3  2  0
  5  3  1  0
  6  5  1  0
  7  6  1  0
  8  7  2  0
  6  9  1  6
 10  9  1  0
 11  7  1  0
 12 11  1  0
 13 12  1  0
 14 13  2  0
 12 15  1  6
 16 15  1  0
 17 16  2  0
 18 16  1  0
 19 13  1  0
 20 19  1  0
 21 20  1  0
 22 21  2  0
 20 23  1  6
 24 23  1  0
 25 24  1  0
 26 24  1  0
 27 21  1  0
 28 27  1  0
 29 28  1  0
 30 29  2  0
 31 29  1  0
 32 31  1  0
 33 32  1  0
 34 33  2  0
 32 35  1  6
 36 35  1  0
 37 36  1  0
 38 36  1  0
 40 39  1  6
 41 40  1  0
 42 41  2  0
 43 40  1  0
 44 43  1  0
 45 43  1  0
 46 41  1  0
 47 46  1  0
 48 47  1  0
 49 48  2  0
 47 50  1  6
 52 51  1  6
 53 52  1  0
 54 53  2  0
 55 52  1  0
 56 55  1  0
 57 56  1  0
 58 56  1  0
 60 59  1  1
 61 60  1  0
 62 61  2  0
 63 60  1  0
 64 63  1  0
 65 64  2  0
 66 64  1  0
 67 65  1  0
 68 66  2  0
 69 68  1  0
 69 67  2  0
 71 70  1  0
 71 72  1  6
 73 72  2  0
 74 71  1  0
 75 74  1  0
 76 75  1  0
 76 70  1  0
 77 72  1  0
 78 77  1  0
 79 78  1  0
 80 79  2  0
 78 81  1  1
 82 81  1  0
 83 82  1  0
 84 82  1  0
 85 79  1  0
 86 85  1  1
 87 86  1  0
 88 87  2  0
 89 86  1  0
 90 89  1  0
 89 91  1  6
 92 90  1  0
 94 93  1  0
 95 94  1  0
 96 95  2  0
 97 95  1  0
 98 97  1  0
 99 98  1  0
100 99  2  0
 98101  1  1
103102  1  1
104103  1  0
105104  2  0
106103  1  0
107106  1  0
108107  2  0
109107  1  0
M  END
$$$$
