
     RDKit          3D

130126  0  0  0  0  0  0  0  0999 V2000
  210.4170  206.1570  231.4800 N   0  0  0  0  0  0  0  0  0  0  0  0
  209.6130  205.8400  232.6600 C   0  0  2  0  0  0  0  0  0  0  0  0
  208.5250  206.8860  232.8730 C   0  0  0  0  0  0  0  0  0  0  0  0
  207.3740  206.5560  233.1810 O   0  0  0  0  0  0  0  0  0  0  0  0
  210.5170  205.7100  233.9000 C   0  0  0  0  0  0  0  0  0  0  0  0
  209.7200  205.2110  235.0940 C   0  0  0  0  0  0  0  0  0  0  0  0
  211.6910  204.7880  233.6090 C   0  0  0  0  0  0  0  0  0  0  0  0
  208.8770  208.1660  232.7330 N   0  0  0  0  0  0  0  0  0  0  0  0
  207.8910  209.2200  232.8960 C   0  0  0  0  0  0  0  0  0  0  0  0
  206.9630  209.4010  231.7160 C   0  0  0  0  0  0  0  0  0  0  0  0
  205.8930  209.9980  231.8690 O   0  0  0  0  0  0  0  0  0  0  0  0
  207.3420  208.8920  230.5480 N   0  0  0  0  0  0  0  0  0  0  0  0
  206.5380  209.0620  229.3560 C   0  0  0  0  0  0  0  0  0  0  0  0
  207.2540  209.8210  228.2620 C   0  0  0  0  0  0  0  0  0  0  0  0
  207.5780  211.0000  228.4260 O   0  0  0  0  0  0  0  0  0  0  0  0
  207.3010  212.0230  225.6800 N   0  0  0  0  0  0  0  0  0  0  0  0
  206.2810  213.0370  225.4520 C   0  0  2  0  0  0  0  0  0  0  0  0
  206.6500  213.9590  224.2970 C   0  0  0  0  0  0  0  0  0  0  0  0
  206.0660  215.0330  224.1400 O   0  0  0  0  0  0  0  0  0  0  0  0
  206.0820  213.8470  226.7310 C   0  0  0  0  0  0  0  0  0  0  0  0
  205.2300  213.1740  227.7830 C   0  0  0  0  0  0  0  0  0  0  0  0
  204.9640  213.8080  228.9900 C   0  0  0  0  0  0  0  0  0  0  0  0
  204.6650  211.9240  227.5650 C   0  0  0  0  0  0  0  0  0  0  0  0
  204.1940  213.2010  229.9680 C   0  0  0  0  0  0  0  0  0  0  0  0
  203.8870  211.3150  228.5340 C   0  0  0  0  0  0  0  0  0  0  0  0
  203.6520  211.9570  229.7300 C   0  0  0  0  0  0  0  0  0  0  0  0
  202.8740  211.3520  230.6900 O   0  0  0  0  0  0  0  0  0  0  0  0
  201.1700  214.5420  217.1400 N   0  0  0  0  0  0  0  0  0  0  0  0
  200.3630  214.2100  215.9720 C   0  0  2  0  0  0  0  0  0  0  0  0
  199.1200  215.0820  215.8730 C   0  0  0  0  0  0  0  0  0  0  0  0
  198.4800  215.3850  216.8790 O   0  0  0  0  0  0  0  0  0  0  0  0
  199.9390  212.7370  215.9850 C   0  0  0  0  0  0  0  0  0  0  0  0
  199.2030  212.2850  217.2140 C   0  0  0  0  0  0  0  0  0  0  0  0
  197.8170  212.2840  217.2570 C   0  0  0  0  0  0  0  0  0  0  0  0
  199.8920  211.8370  218.3250 C   0  0  0  0  0  0  0  0  0  0  0  0
  197.1460  211.8570  218.3780 C   0  0  0  0  0  0  0  0  0  0  0  0
  199.2290  211.4160  219.4440 C   0  0  0  0  0  0  0  0  0  0  0  0
  197.8580  211.4280  219.4710 C   0  0  0  0  0  0  0  0  0  0  0  0
  197.1950  211.0030  220.5970 O   0  0  0  0  0  0  0  0  0  0  0  0
  191.3910  228.5480  224.1580 N   0  0  0  0  0  0  0  0  0  0  0  0
  190.9290  227.1750  224.2060 C   0  0  2  0  0  0  0  0  0  0  0  0
  189.7540  227.0420  225.1660 C   0  0  0  0  0  0  0  0  0  0  0  0
  189.4540  227.9390  225.9580 O   0  0  0  0  0  0  0  0  0  0  0  0
  192.0610  226.2500  224.6490 C   0  0  0  0  0  0  0  0  0  0  0  0
  193.1400  226.0390  223.6070 C   0  0  0  0  0  0  0  0  0  0  0  0
  192.7990  224.9300  222.6310 C   0  0  0  0  0  0  0  0  0  0  0  0
  192.5940  223.7880  223.0930 O   0  0  0  0  0  0  0  0  0  0  0  0
  192.7420  225.1930  221.4120 O   0  0  0  0  0  0  0  0  0  0  0  0
  189.0890  225.8980  225.0850 N   0  0  0  0  0  0  0  0  0  0  0  0
  187.9410  225.6390  225.9240 C   0  0  0  0  0  0  0  0  0  0  0  0
  186.8020  225.0870  225.1030 C   0  0  0  0  0  0  0  0  0  0  0  0
  186.9720  224.0980  224.3860 O   0  0  0  0  0  0  0  0  0  0  0  0
  187.0440  225.1410  220.9210 N   0  0  0  0  0  0  0  0  0  0  0  0
  188.4200  225.5440  220.6300 C   0  0  2  0  0  0  0  0  0  0  0  0
  189.3730  224.4860  221.1750 C   0  0  0  0  0  0  0  0  0  0  0  0
  189.7170  224.5070  222.3600 O   0  0  0  0  0  0  0  0  0  0  0  0
  188.7340  226.9060  221.2340 C   0  0  0  0  0  0  0  0  0  0  0  0
  188.0560  228.3230  220.3640 S   0  0  0  0  0  0  0  0  0  0  0  0
  189.8070  223.5760  220.3090 N   0  0  0  0  0  0  0  0  0  0  0  0
  190.7950  222.5700  220.6610 C   0  0  2  0  0  0  0  0  0  0  0  0
  191.9340  222.5930  219.6520 C   0  0  0  0  0  0  0  0  0  0  0  0
  191.7420  222.9260  218.4790 O   0  0  0  0  0  0  0  0  0  0  0  0
  190.1700  221.1720  220.7400 C   0  0  0  0  0  0  0  0  0  0  0  0
  189.7430  220.8090  222.1420 C   0  0  0  0  0  0  0  0  0  0  0  0
  188.7630  221.5390  222.7970 C   0  0  0  0  0  0  0  0  0  0  0  0
  190.3300  219.7470  222.8180 C   0  0  0  0  0  0  0  0  0  0  0  0
  188.3750  221.2230  224.0820 C   0  0  0  0  0  0  0  0  0  0  0  0
  189.9420  219.4190  224.1040 C   0  0  0  0  0  0  0  0  0  0  0  0
  188.9630  220.1630  224.7290 C   0  0  0  0  0  0  0  0  0  0  0  0
  188.5710  219.8590  226.0100 O   0  0  0  0  0  0  0  0  0  0  0  0
  198.3060  216.7090  218.7850 N   0  0  0  0  0  0  0  0  0  0  0  0
  198.2050  215.9390  220.0160 C   0  0  2  0  0  0  0  0  0  0  0  0
  199.4710  215.1150  220.1940 C   0  0  0  0  0  0  0  0  0  0  0  0
  200.1490  214.7890  219.2220 O   0  0  0  0  0  0  0  0  0  0  0  0
  196.9830  215.0180  219.9640 C   0  0  0  0  0  0  0  0  0  0  0  0
  196.5790  214.4690  221.2890 C   0  0  0  0  0  0  0  0  0  0  0  0
  196.1460  215.5720  222.1900 C   0  0  0  0  0  0  0  0  0  0  0  0
  196.8630  215.9480  223.1100 O   0  0  0  0  0  0  0  0  0  0  0  0
  194.9730  216.1220  221.9250 N   0  0  0  0  0  0  0  0  0  0  0  0
  199.7880  214.7740  221.4430 N   0  0  0  0  0  0  0  0  0  0  0  0
  201.0010  214.0340  221.7600 C   0  0  2  0  0  0  0  0  0  0  0  0
  200.6670  212.6240  222.2290 C   0  0  0  0  0  0  0  0  0  0  0  0
  199.5020  212.2610  222.4070 O   0  0  0  0  0  0  0  0  0  0  0  0
  201.8290  214.7420  222.8370 C   0  0  0  0  0  0  0  0  0  0  0  0
  202.7410  213.8410  223.4410 O   0  0  0  0  0  0  0  0  0  0  0  0
  201.7150  211.8270  222.4100 N   0  0  0  0  0  0  0  0  0  0  0  0
  201.6280  210.4950  222.9880 C   0  0  2  0  0  0  0  0  0  0  0  0
  202.3390  210.4200  224.3320 C   0  0  0  0  0  0  0  0  0  0  0  0
  203.0900  211.3170  224.7260 O   0  0  0  0  0  0  0  0  0  0  0  0
  202.2340  209.4260  222.0740 C   0  0  0  0  0  0  0  0  0  0  0  0
  201.4000  209.0010  220.8970 C   0  0  0  0  0  0  0  0  0  0  0  0
  200.1600  208.4120  221.0910 C   0  0  0  0  0  0  0  0  0  0  0  0
  201.8800  209.1110  219.6010 C   0  0  0  0  0  0  0  0  0  0  0  0
  199.3990  207.9920  220.0290 C   0  0  0  0  0  0  0  0  0  0  0  0
  201.1260  208.6880  218.5250 C   0  0  0  0  0  0  0  0  0  0  0  0
  199.8840  208.1320  218.7500 C   0  0  0  0  0  0  0  0  0  0  0  0
  199.1130  207.7070  217.6980 O   0  0  0  0  0  0  0  0  0  0  0  0
  202.0790  209.3180  225.0300 N   0  0  0  0  0  0  0  0  0  0  0  0
  202.8200  208.9450  226.2160 C   0  0  0  0  0  0  0  0  0  0  0  0
  203.3570  207.5340  226.1190 C   0  0  0  0  0  0  0  0  0  0  0  0
  202.5820  206.5830  225.9900 O   0  0  0  0  0  0  0  0  0  0  0  0
  205.5510  204.6260  227.9440 N   0  0  0  0  0  0  0  0  0  0  0  0
  206.2080  204.1110  229.1310 C   0  0  2  0  0  0  0  0  0  0  0  0
  206.3620  202.6050  229.0120 C   0  0  0  0  0  0  0  0  0  0  0  0
  205.5050  201.9350  228.4250 O   0  0  0  0  0  0  0  0  0  0  0  0
  205.4140  204.4520  230.3990 C   0  0  0  0  0  0  0  0  0  0  0  0
  205.3820  205.9300  230.6920 C   0  0  0  0  0  0  0  0  0  0  0  0
  204.5240  206.2870  231.8790 C   0  0  0  0  0  0  0  0  0  0  0  0
  204.6900  207.3500  232.4710 O   0  0  0  0  0  0  0  0  0  0  0  0
  203.5950  205.4080  232.2330 N   0  0  0  0  0  0  0  0  0  0  0  0
  203.4020  200.7260  230.3920 N   0  0  0  0  0  0  0  0  0  0  0  0
  202.1970  200.6280  229.5820 C   0  0  2  0  0  0  0  0  0  0  0  0
  202.0900  199.2580  228.9160 C   0  0  0  0  0  0  0  0  0  0  0  0
  203.0680  198.5150  228.7910 O   0  0  0  0  0  0  0  0  0  0  0  0
  202.1750  201.7100  228.5010 C   0  0  0  0  0  0  0  0  0  0  0  0
  201.9840  203.0990  229.0640 C   0  0  0  0  0  0  0  0  0  0  0  0
  202.7200  204.0240  228.7270 O   0  0  0  0  0  0  0  0  0  0  0  0
  200.9930  203.2540  229.9320 N   0  0  0  0  0  0  0  0  0  0  0  0
  199.6670  199.5750  223.8350 N   0  0  0  0  0  0  0  0  0  0  0  0
  199.9500  200.9980  223.9440 C   0  0  2  0  0  0  0  0  0  0  0  0
  201.4460  201.2780  223.9850 C   0  0  0  0  0  0  0  0  0  0  0  0
  201.8540  202.4440  223.9890 O   0  0  0  0  0  0  0  0  0  0  0  0
  199.2620  201.5740  225.1830 C   0  0  0  0  0  0  0  0  0  0  0  0
  199.1140  203.0770  225.1650 C   0  0  0  0  0  0  0  0  0  0  0  0
  198.1970  203.6940  224.3250 C   0  0  0  0  0  0  0  0  0  0  0  0
  199.8860  203.8780  225.9960 C   0  0  0  0  0  0  0  0  0  0  0  0
  198.0600  205.0690  224.3070 C   0  0  0  0  0  0  0  0  0  0  0  0
  199.7540  205.2500  225.9860 C   0  0  0  0  0  0  0  0  0  0  0  0
  198.8420  205.8410  225.1410 C   0  0  0  0  0  0  0  0  0  0  0  0
  198.7120  207.2110  225.1320 O   0  0  0  0  0  0  0  0  0  0  0  0
  2  1  1  6
  3  2  1  0
  4  3  2  0
  5  2  1  0
  6  5  1  0
  7  5  1  0
  8  3  1  0
  9  8  1  0
 10  9  1  0
 11 10  2  0
 12 10  1  0
 13 12  1  0
 14 13  1  0
 15 14  2  0
 17 16  1  1
 18 17  1  0
 19 18  2  0
 20 17  1  0
 21 20  1  0
 22 21  2  0
 23 21  1  0
 24 22  1  0
 25 23  2  0
 26 25  1  0
 26 24  2  0
 27 26  1  0
 29 28  1  1
 30 29  1  0
 31 30  2  0
 32 29  1  0
 33 32  1  0
 34 33  2  0
 35 33  1  0
 36 34  1  0
 37 35  2  0
 38 37  1  0
 38 36  2  0
 39 38  1  0
 41 40  1  1
 42 41  1  0
 43 42  2  0
 44 41  1  0
 45 44  1  0
 46 45  1  0
 47 46  2  0
 48 46  1  0
 49 42  1  0
 50 49  1  0
 51 50  1  0
 52 51  2  0
 54 53  1  1
 55 54  1  0
 56 55  2  0
 57 54  1  0
 58 57  1  0
 59 55  1  0
 60 59  1  0
 61 60  1  0
 62 61  2  0
 60 63  1  6
 64 63  1  0
 65 64  2  0
 66 64  1  0
 67 65  1  0
 68 66  2  0
 69 68  1  0
 69 67  2  0
 70 69  1  0
 72 71  1  6
 73 72  1  0
 74 73  2  0
 75 72  1  0
 76 75  1  0
 77 76  1  0
 78 77  2  0
 79 77  1  0
 80 73  1  0
 81 80  1  0
 82 81  1  0
 83 82  2  0
 81 84  1  1
 85 84  1  0
 86 82  1  0
 87 86  1  0
 88 87  1  0
 89 88  2  0
 87 90  1  6
 91 90  1  0
 92 91  2  0
 93 91  1  0
 94 92  1  0
 95 93  2  0
 96 95  1  0
 96 94  2  0
 97 96  1  0
 98 88  1  0
 99 98  1  0
100 99  1  0
101100  2  0
103102  1  6
104103  1  0
105104  2  0
106103  1  0
107106  1  0
108107  1  0
109108  2  0
110108  1  0
112111  1  6
113112  1  0
114113  2  0
115112  1  0
116115  1  0
117116  2  0
118116  1  0
120119  1  1
121120  1  0
122121  2  0
123120  1  0
124123  1  0
125124  2  0
126124  1  0
127125  1  0
128126  2  0
129128  1  0
129127  2  0
130129  1  0
M  END
$$$$
