
     RDKit          3D

145144  0  0  0  0  0  0  0  0999 V2000
  205.0720  232.7990  244.0540 N   0  0  0  0  0  0  0  0  0  0  0  0
  204.1540  233.9330  244.0580 C   0  0  2  0  0  0  0  0  0  0  0  0
  203.7590  234.3050  242.6360 C   0  0  0  0  0  0  0  0  0  0  0  0
  202.5710  234.4670  242.3270 O   0  0  0  0  0  0  0  0  0  0  0  0
  204.7890  235.1230  244.7750 C   0  0  0  0  0  0  0  0  0  0  0  0
  205.1290  234.8460  246.2230 C   0  0  0  0  0  0  0  0  0  0  0  0
  203.8810  234.9120  247.0810 C   0  0  0  0  0  0  0  0  0  0  0  0
  204.1890  234.5850  248.5260 C   0  0  0  0  0  0  0  0  0  0  0  0
  205.1270  235.5690  249.1340 N   0  0  0  0  0  0  0  0  0  0  0  0
  199.9310  233.6560  241.3400 N   0  0  0  0  0  0  0  0  0  0  0  0
  199.0300  234.7950  241.4130 C   0  0  2  0  0  0  0  0  0  0  0  0
  199.3410  235.9140  240.4290 C   0  0  0  0  0  0  0  0  0  0  0  0
  198.5630  236.8710  240.3500 O   0  0  0  0  0  0  0  0  0  0  0  0
  199.0250  235.3630  242.8390 C   0  0  0  0  0  0  0  0  0  0  0  0
  198.9540  234.2970  243.9090 C   0  0  0  0  0  0  0  0  0  0  0  0
  197.9340  233.3490  243.9070 C   0  0  0  0  0  0  0  0  0  0  0  0
  199.9110  234.2280  244.9140 C   0  0  0  0  0  0  0  0  0  0  0  0
  197.8640  232.3700  244.8810 C   0  0  0  0  0  0  0  0  0  0  0  0
  199.8510  233.2500  245.8900 C   0  0  0  0  0  0  0  0  0  0  0  0
  198.8250  232.3260  245.8690 C   0  0  0  0  0  0  0  0  0  0  0  0
  198.7610  231.3520  246.8390 O   0  0  0  0  0  0  0  0  0  0  0  0
  200.9360  240.7190  242.8900 N   0  0  0  0  0  0  0  0  0  0  0  0
  199.8280  240.2160  243.6860 C   0  0  2  0  0  0  0  0  0  0  0  0
  200.3480  239.2470  244.7380 C   0  0  0  0  0  0  0  0  0  0  0  0
  201.0420  238.2780  244.4150 O   0  0  0  0  0  0  0  0  0  0  0  0
  198.8020  239.5210  242.7920 C   0  0  0  0  0  0  0  0  0  0  0  0
  197.5300  239.0970  243.5100 C   0  0  0  0  0  0  0  0  0  0  0  0
  196.4590  238.6490  242.5220 C   0  0  0  0  0  0  0  0  0  0  0  0
  196.1430  239.6810  241.5410 N   0  0  0  0  0  0  0  0  0  0  0  0
  195.3370  240.7100  241.7610 C   0  0  0  0  0  0  0  0  0  0  0  0
  194.7030  240.8590  242.9130 N   0  0  0  0  0  0  0  0  0  0  0  0
  195.1530  241.6080  240.7970 N   0  0  0  0  0  0  0  0  0  0  0  0
  200.0090  239.5120  245.9960 N   0  0  0  0  0  0  0  0  0  0  0  0
  200.4090  238.6600  247.1080 C   0  0  2  0  0  0  0  0  0  0  0  0
  199.3000  237.7140  247.5420 C   0  0  0  0  0  0  0  0  0  0  0  0
  199.5710  236.5580  247.8830 O   0  0  0  0  0  0  0  0  0  0  0  0
  200.8580  239.5180  248.2950 C   0  0  0  0  0  0  0  0  0  0  0  0
  201.4310  238.7770  249.5050 C   0  0  0  0  0  0  0  0  0  0  0  0
  202.6720  238.0060  249.1010 C   0  0  0  0  0  0  0  0  0  0  0  0
  201.7510  239.7470  250.6280 C   0  0  0  0  0  0  0  0  0  0  0  0
  198.0540  238.1790  247.5170 N   0  0  0  0  0  0  0  0  0  0  0  0
  196.9140  237.4260  248.0180 C   0  0  2  0  0  0  0  0  0  0  0  0
  195.9520  237.1380  246.8760 C   0  0  0  0  0  0  0  0  0  0  0  0
  195.5740  238.0490  246.1330 O   0  0  0  0  0  0  0  0  0  0  0  0
  196.1910  238.2030  249.1170 C   0  0  0  0  0  0  0  0  0  0  0  0
  197.0120  238.4220  250.3520 C   0  0  0  0  0  0  0  0  0  0  0  0
  197.2400  237.3830  251.2410 C   0  0  0  0  0  0  0  0  0  0  0  0
  197.5470  239.6710  250.6310 C   0  0  0  0  0  0  0  0  0  0  0  0
  197.9940  237.5810  252.3840 C   0  0  0  0  0  0  0  0  0  0  0  0
  198.3000  239.8780  251.7730 C   0  0  0  0  0  0  0  0  0  0  0  0
  198.5250  238.8310  252.6500 C   0  0  0  0  0  0  0  0  0  0  0  0
  195.5530  235.8740  246.7480 N   0  0  0  0  0  0  0  0  0  0  0  0
  194.4780  235.4850  245.8480 C   0  0  2  0  0  0  0  0  0  0  0  0
  193.8520  234.1960  246.3590 C   0  0  0  0  0  0  0  0  0  0  0  0
  194.5250  233.3680  246.9800 O   0  0  0  0  0  0  0  0  0  0  0  0
  194.9740  235.3000  244.4080 C   0  0  0  0  0  0  0  0  0  0  0  0
  193.8950  235.4770  243.3550 C   0  0  0  0  0  0  0  0  0  0  0  0
  194.4630  235.3780  241.9520 C   0  0  0  0  0  0  0  0  0  0  0  0
  193.4480  235.6600  240.9450 N   0  0  0  0  0  0  0  0  0  0  0  0
  192.6700  234.7410  240.3920 C   0  0  0  0  0  0  0  0  0  0  0  0
  192.7720  233.4630  240.7170 N   0  0  0  0  0  0  0  0  0  0  0  0
  191.7680  235.1130  239.4880 N   0  0  0  0  0  0  0  0  0  0  0  0
  192.5500  234.0410  246.1020 N   0  0  0  0  0  0  0  0  0  0  0  0
  191.8180  232.8840  246.6030 C   0  0  2  0  0  0  0  0  0  0  0  0
  192.2140  231.5970  245.8900 C   0  0  0  0  0  0  0  0  0  0  0  0
  192.0520  230.5130  246.4590 O   0  0  0  0  0  0  0  0  0  0  0  0
  190.3120  233.1120  246.4650 C   0  0  0  0  0  0  0  0  0  0  0  0
  189.7560  234.1770  247.3970 C   0  0  0  0  0  0  0  0  0  0  0  0
  189.4890  233.6130  248.7830 C   0  0  0  0  0  0  0  0  0  0  0  0
  188.3520  234.3540  249.4690 C   0  0  0  0  0  0  0  0  0  0  0  0
  188.8350  235.5610  250.1970 N   0  0  0  0  0  0  0  0  0  0  0  0
  191.2860  242.1370  249.7840 N   0  0  0  0  0  0  0  0  0  0  0  0
  191.2850  240.6900  249.9570 C   0  0  2  0  0  0  0  0  0  0  0  0
  190.6300  240.3140  251.2810 C   0  0  0  0  0  0  0  0  0  0  0  0
  191.0850  240.7420  252.3470 O   0  0  0  0  0  0  0  0  0  0  0  0
  192.7120  240.1570  249.9080 C   0  0  0  0  0  0  0  0  0  0  0  0
  192.8090  238.6540  250.0130 C   0  0  0  0  0  0  0  0  0  0  0  0
  192.4070  237.8430  248.9580 C   0  0  0  0  0  0  0  0  0  0  0  0
  193.2870  238.0440  251.1690 C   0  0  0  0  0  0  0  0  0  0  0  0
  192.4940  236.4660  249.0410 C   0  0  0  0  0  0  0  0  0  0  0  0
  193.3790  236.6660  251.2610 C   0  0  0  0  0  0  0  0  0  0  0  0
  192.9780  235.8840  250.1940 C   0  0  0  0  0  0  0  0  0  0  0  0
  193.0640  234.5150  250.2730 O   0  0  0  0  0  0  0  0  0  0  0  0
  189.5640  239.5200  251.2150 N   0  0  0  0  0  0  0  0  0  0  0  0
  188.8680  239.0660  252.4180 C   0  0  2  0  0  0  0  0  0  0  0  0
  189.6040  237.8450  252.9560 C   0  0  0  0  0  0  0  0  0  0  0  0
  189.4250  236.7270  252.4660 O   0  0  0  0  0  0  0  0  0  0  0  0
  187.4120  238.7460  252.1060 C   0  0  0  0  0  0  0  0  0  0  0  0
  186.5650  238.4650  253.3320 C   0  0  0  0  0  0  0  0  0  0  0  0
  185.0820  238.4300  253.0210 C   0  0  0  0  0  0  0  0  0  0  0  0
  184.6710  237.9650  251.9580 O   0  0  0  0  0  0  0  0  0  0  0  0
  184.2710  238.9220  253.9490 N   0  0  0  0  0  0  0  0  0  0  0  0
  190.4390  238.0590  253.9730 N   0  0  0  0  0  0  0  0  0  0  0  0
  191.2690  237.0080  254.5480 C   0  0  2  0  0  0  0  0  0  0  0  0
  190.6610  236.3500  255.7800 C   0  0  0  0  0  0  0  0  0  0  0  0
  191.2040  235.3490  256.2560 O   0  0  0  0  0  0  0  0  0  0  0  0
  192.6500  237.5650  254.9080 C   0  0  0  0  0  0  0  0  0  0  0  0
  189.5620  236.8780  256.3070 N   0  0  0  0  0  0  0  0  0  0  0  0
  188.9950  236.3590  257.5360 C   0  0  0  0  0  0  0  0  0  0  0  0
  187.5390  235.9630  257.4320 C   0  0  0  0  0  0  0  0  0  0  0  0
  186.9980  235.3480  258.3580 O   0  0  0  0  0  0  0  0  0  0  0  0
  186.9100  236.3230  256.3050 N   0  0  0  0  0  0  0  0  0  0  0  0
  185.4910  236.0780  256.0080 C   0  0  2  0  0  0  0  0  0  0  0  0
  184.5710  236.6800  257.0700 C   0  0  0  0  0  0  0  0  0  0  0  0
  183.5030  236.1410  257.3700 O   0  0  0  0  0  0  0  0  0  0  0  0
  185.1960  234.5840  255.8210 C   0  0  0  0  0  0  0  0  0  0  0  0
  185.8040  234.0870  254.6420 O   0  0  0  0  0  0  0  0  0  0  0  0
  184.9950  237.8040  257.6370 N   0  0  0  0  0  0  0  0  0  0  0  0
  184.1360  238.7000  258.3910 C   0  0  2  0  0  0  0  0  0  0  0  0
  183.3260  239.5410  257.4070 C   0  0  0  0  0  0  0  0  0  0  0  0
  183.5710  239.4960  256.1990 O   0  0  0  0  0  0  0  0  0  0  0  0
  185.0100  239.5640  259.3050 C   0  0  2  0  0  0  0  0  0  0  0  0
  185.5760  240.6420  258.5490 O   0  0  0  0  0  0  0  0  0  0  0  0
  186.1330  238.7350  259.9200 C   0  0  0  0  0  0  0  0  0  0  0  0
  191.7720  245.3030  259.5460 N   0  0  0  0  0  0  0  0  0  0  0  0
  192.1540  244.0090  260.0950 C   0  0  2  0  0  0  0  0  0  0  0  0
  191.4020  242.9130  259.3550 C   0  0  0  0  0  0  0  0  0  0  0  0
  190.1950  243.0390  259.1190 O   0  0  0  0  0  0  0  0  0  0  0  0
  191.8580  243.9400  261.5930 C   0  0  0  0  0  0  0  0  0  0  0  0
  192.1840  242.6110  262.2110 C   0  0  0  0  0  0  0  0  0  0  0  0
  193.4750  242.1080  262.1590 C   0  0  0  0  0  0  0  0  0  0  0  0
  191.1990  241.8620  262.8370 C   0  0  0  0  0  0  0  0  0  0  0  0
  193.7810  240.8830  262.7240 C   0  0  0  0  0  0  0  0  0  0  0  0
  191.4970  240.6350  263.4040 C   0  0  0  0  0  0  0  0  0  0  0  0
  192.7910  240.1470  263.3470 C   0  0  0  0  0  0  0  0  0  0  0  0
  192.1300  241.8550  258.9720 N   0  0  0  0  0  0  0  0  0  0  0  0
  191.6480  240.7430  258.1430 C   0  0  2  0  0  0  0  0  0  0  0  0
  191.0980  241.2060  256.7930 C   0  0  0  0  0  0  0  0  0  0  0  0
  190.2650  240.5220  256.1900 O   0  0  0  0  0  0  0  0  0  0  0  0
  190.6100  239.8820  258.8780 C   0  0  0  0  0  0  0  0  0  0  0  0
  191.2500  238.8380  259.7740 C   0  0  0  0  0  0  0  0  0  0  0  0
  192.4140  238.4800  259.5960 O   0  0  0  0  0  0  0  0  0  0  0  0
  190.4870  238.3390  260.7390 N   0  0  0  0  0  0  0  0  0  0  0  0
  193.0220  242.7880  253.5110 N   0  0  0  0  0  0  0  0  0  0  0  0
  194.3490  243.1780  253.0640 C   0  0  2  0  0  0  0  0  0  0  0  0
  194.2990  243.7530  251.6550 C   0  0  0  0  0  0  0  0  0  0  0  0
  193.4610  243.3690  250.8350 O   0  0  0  0  0  0  0  0  0  0  0  0
  195.3080  241.9880  253.1130 C   0  0  0  0  0  0  0  0  0  0  0  0
  195.5320  241.4670  254.5120 C   0  0  0  0  0  0  0  0  0  0  0  0
  196.0790  242.2820  255.4960 C   0  0  0  0  0  0  0  0  0  0  0  0
  195.1940  240.1630  254.8510 C   0  0  0  0  0  0  0  0  0  0  0  0
  196.2890  241.8110  256.7790 C   0  0  0  0  0  0  0  0  0  0  0  0
  195.3970  239.6820  256.1330 C   0  0  0  0  0  0  0  0  0  0  0  0
  195.9450  240.5110  257.0920 C   0  0  0  0  0  0  0  0  0  0  0  0
  196.1460  240.0400  258.3680 O   0  0  0  0  0  0  0  0  0  0  0  0
  2  1  1  6
  3  2  1  0
  4  3  2  0
  5  2  1  0
  6  5  1  0
  7  6  1  0
  8  7  1  0
  9  8  1  0
 11 10  1  1
 12 11  1  0
 13 12  2  0
 14 11  1  0
 15 14  1  0
 16 15  2  0
 17 15  1  0
 18 16  1  0
 19 17  2  0
 20 18  2  0
 20 19  1  0
 21 20  1  0
 23 22  1  6
 24 23  1  0
 25 24  2  0
 26 23  1  0
 27 26  1  0
 28 27  1  0
 29 28  1  0
 30 29  1  0
 31 30  1  0
 32 30  2  0
 33 24  1  0
 34 33  1  0
 35 34  1  0
 36 35  2  0
 34 37  1  1
 38 37  1  0
 39 38  1  0
 40 38  1  0
 41 35  1  0
 42 41  1  0
 43 42  1  0
 44 43  2  0
 42 45  1  1
 46 45  1  0
 47 46  2  0
 48 46  1  0
 49 47  1  0
 50 48  2  0
 51 49  2  0
 51 50  1  0
 52 43  1  0
 53 52  1  0
 54 53  1  0
 55 54  2  0
 53 56  1  6
 57 56  1  0
 58 57  1  0
 59 58  1  0
 60 59  1  0
 61 60  1  0
 62 60  2  0
 63 54  1  0
 64 63  1  0
 65 64  1  0
 66 65  2  0
 64 67  1  6
 68 67  1  0
 69 68  1  0
 70 69  1  0
 71 70  1  0
 73 72  1  1
 74 73  1  0
 75 74  2  0
 76 73  1  0
 77 76  1  0
 78 77  2  0
 79 77  1  0
 80 78  1  0
 81 79  2  0
 82 80  2  0
 82 81  1  0
 83 82  1  0
 84 74  1  0
 85 84  1  0
 86 85  1  0
 87 86  2  0
 85 88  1  6
 89 88  1  0
 90 89  1  0
 91 90  2  0
 92 90  1  0
 93 86  1  0
 94 93  1  0
 95 94  1  0
 96 95  2  0
 94 97  1  1
 98 95  1  0
 99 98  1  0
100 99  1  0
101100  2  0
102100  1  0
103102  1  0
104103  1  0
105104  2  0
103106  1  1
107106  1  0
108104  1  0
109108  1  6
110109  1  0
111110  2  0
112109  1  0
113112  1  0
112114  1  6
116115  1  6
117116  1  0
118117  2  0
119116  1  0
120119  1  0
121120  2  0
122120  1  0
123121  1  0
124122  2  0
125124  1  0
125123  2  0
126117  1  0
127126  1  0
128127  1  0
129128  2  0
127130  1  1
131130  1  0
132131  2  0
133131  1  0
135134  1  6
136135  1  0
137136  2  0
138135  1  0
139138  1  0
140139  2  0
141139  1  0
142140  1  0
143141  2  0
144143  1  0
144142  2  0
145144  1  0
M  END
$$$$
