
     RDKit          3D

145144  0  0  0  0  0  0  0  0999 V2000
  168.2540  189.0990  243.3350 N   0  0  0  0  0  0  0  0  0  0  0  0
  167.6780  187.7570  243.3570 C   0  0  2  0  0  0  0  0  0  0  0  0
  167.4980  187.2230  241.9450 C   0  0  0  0  0  0  0  0  0  0  0  0
  167.9020  186.0930  241.6360 O   0  0  0  0  0  0  0  0  0  0  0  0
  166.3430  187.7680  244.1000 C   0  0  0  0  0  0  0  0  0  0  0  0
  166.4620  188.1920  245.5350 C   0  0  0  0  0  0  0  0  0  0  0  0
  166.9940  187.0290  246.3440 C   0  0  0  0  0  0  0  0  0  0  0  0
  167.1900  187.4100  247.7850 C   0  0  0  0  0  0  0  0  0  0  0  0
  165.9170  187.7870  248.4540 N   0  0  0  0  0  0  0  0  0  0  0  0
  169.8540  184.1200  240.6710 N   0  0  0  0  0  0  0  0  0  0  0  0
  169.2850  182.7850  240.7820 C   0  0  2  0  0  0  0  0  0  0  0  0
  168.1290  182.5060  239.8330 C   0  0  0  0  0  0  0  0  0  0  0  0
  167.6560  181.3660  239.7910 O   0  0  0  0  0  0  0  0  0  0  0  0
  168.8220  182.5280  242.2240 C   0  0  0  0  0  0  0  0  0  0  0  0
  169.8160  182.9870  243.2630 C   0  0  0  0  0  0  0  0  0  0  0  0
  171.1330  182.5420  243.2320 C   0  0  0  0  0  0  0  0  0  0  0  0
  169.4410  183.8620  244.2760 C   0  0  0  0  0  0  0  0  0  0  0  0
  172.0480  182.9520  244.1760 C   0  0  0  0  0  0  0  0  0  0  0  0
  170.3530  184.2800  245.2290 C   0  0  0  0  0  0  0  0  0  0  0  0
  171.6540  183.8190  245.1710 C   0  0  0  0  0  0  0  0  0  0  0  0
  172.5710  184.2240  246.1070 O   0  0  0  0  0  0  0  0  0  0  0  0
  163.1340  181.7770  242.5300 N   0  0  0  0  0  0  0  0  0  0  0  0
  164.1050  181.0430  243.3240 C   0  0  2  0  0  0  0  0  0  0  0  0
  164.7320  181.9710  244.3530 C   0  0  0  0  0  0  0  0  0  0  0  0
  165.2620  183.0320  244.0070 O   0  0  0  0  0  0  0  0  0  0  0  0
  165.1840  180.4410  242.4270 C   0  0  0  0  0  0  0  0  0  0  0  0
  166.1570  179.5250  243.1520 C   0  0  0  0  0  0  0  0  0  0  0  0
  167.0380  178.7640  242.1700 C   0  0  0  0  0  0  0  0  0  0  0  0
  166.2610  177.9870  241.2120 N   0  0  0  0  0  0  0  0  0  0  0  0
  165.7270  176.7980  241.4610 C   0  0  0  0  0  0  0  0  0  0  0  0
  165.9030  176.1900  242.6230 N   0  0  0  0  0  0  0  0  0  0  0  0
  165.0110  176.1980  240.5150 N   0  0  0  0  0  0  0  0  0  0  0  0
  164.6730  181.5650  245.6180 N   0  0  0  0  0  0  0  0  0  0  0  0
  165.2500  182.3310  246.7120 C   0  0  2  0  0  0  0  0  0  0  0  0
  166.6120  181.8020  247.1330 C   0  0  0  0  0  0  0  0  0  0  0  0
  167.5080  182.5880  247.4580 O   0  0  0  0  0  0  0  0  0  0  0  0
  164.2940  182.3260  247.9100 C   0  0  0  0  0  0  0  0  0  0  0  0
  164.6710  183.1850  249.1140 C   0  0  0  0  0  0  0  0  0  0  0  0
  164.7440  184.6310  248.6900 C   0  0  0  0  0  0  0  0  0  0  0  0
  163.6590  183.0180  250.2280 C   0  0  0  0  0  0  0  0  0  0  0  0
  166.7870  180.4840  247.1220 N   0  0  0  0  0  0  0  0  0  0  0  0
  167.9950  179.8330  247.6080 C   0  0  2  0  0  0  0  0  0  0  0  0
  168.6760  179.1010  246.4630 C   0  0  0  0  0  0  0  0  0  0  0  0
  168.0310  178.3350  245.7400 O   0  0  0  0  0  0  0  0  0  0  0  0
  167.6760  178.8540  248.7360 C   0  0  0  0  0  0  0  0  0  0  0  0
  167.1340  179.5070  249.9690 C   0  0  0  0  0  0  0  0  0  0  0  0
  167.9720  180.2120  250.8200 C   0  0  0  0  0  0  0  0  0  0  0  0
  165.7880  179.4140  250.2830 C   0  0  0  0  0  0  0  0  0  0  0  0
  167.4760  180.8160  251.9610 C   0  0  0  0  0  0  0  0  0  0  0  0
  165.2870  180.0120  251.4210 C   0  0  0  0  0  0  0  0  0  0  0  0
  166.1310  180.7160  252.2610 C   0  0  0  0  0  0  0  0  0  0  0  0
  169.9770  179.3330  246.3090 N   0  0  0  0  0  0  0  0  0  0  0  0
  170.8040  178.5510  245.4030 C   0  0  2  0  0  0  0  0  0  0  0  0
  172.2410  178.5990  245.8940 C   0  0  0  0  0  0  0  0  0  0  0  0
  172.6720  179.5850  246.4990 O   0  0  0  0  0  0  0  0  0  0  0  0
  170.7200  179.0630  243.9600 C   0  0  0  0  0  0  0  0  0  0  0  0
  171.0450  178.0130  242.9120 C   0  0  0  0  0  0  0  0  0  0  0  0
  170.8580  178.5460  241.5050 C   0  0  0  0  0  0  0  0  0  0  0  0
  171.0610  177.5020  240.5090 N   0  0  0  0  0  0  0  0  0  0  0  0
  172.2290  177.2250  239.9450 C   0  0  0  0  0  0  0  0  0  0  0  0
  173.3220  177.9040  240.2500 N   0  0  0  0  0  0  0  0  0  0  0  0
  172.3010  176.2450  239.0480 N   0  0  0  0  0  0  0  0  0  0  0  0
  172.9760  177.5130  245.6410 N   0  0  0  0  0  0  0  0  0  0  0  0
  174.3470  177.4040  246.1260 C   0  0  2  0  0  0  0  0  0  0  0  0
  175.2980  178.3380  245.3880 C   0  0  0  0  0  0  0  0  0  0  0  0
  176.3410  178.7040  245.9410 O   0  0  0  0  0  0  0  0  0  0  0  0
  174.8300  175.9600  245.9960 C   0  0  0  0  0  0  0  0  0  0  0  0
  174.1440  174.9930  246.9450 C   0  0  0  0  0  0  0  0  0  0  0  0
  174.7820  175.0250  248.3200 C   0  0  0  0  0  0  0  0  0  0  0  0
  174.6460  173.6860  249.0240 C   0  0  0  0  0  0  0  0  0  0  0  0
  173.3600  173.5820  249.7690 N   0  0  0  0  0  0  0  0  0  0  0  0
  166.4440  172.3960  249.5270 N   0  0  0  0  0  0  0  0  0  0  0  0
  167.7190  173.0830  249.6660 C   0  0  2  0  0  0  0  0  0  0  0  0
  168.3780  172.6990  250.9840 C   0  0  0  0  0  0  0  0  0  0  0  0
  167.8040  172.9190  252.0560 O   0  0  0  0  0  0  0  0  0  0  0  0
  167.4820  174.5880  249.5960 C   0  0  0  0  0  0  0  0  0  0  0  0
  168.7120  175.4570  249.6600 C   0  0  0  0  0  0  0  0  0  0  0  0
  169.5960  175.5170  248.5890 C   0  0  0  0  0  0  0  0  0  0  0  0
  168.9770  176.2360  250.7790 C   0  0  0  0  0  0  0  0  0  0  0  0
  170.7130  176.3260  248.6320 C   0  0  0  0  0  0  0  0  0  0  0  0
  170.0910  177.0490  250.8310 C   0  0  0  0  0  0  0  0  0  0  0  0
  170.9550  177.0880  249.7560 C   0  0  0  0  0  0  0  0  0  0  0  0
  172.0670  177.8930  249.7990 O   0  0  0  0  0  0  0  0  0  0  0  0
  169.5790  172.1280  250.9120 N   0  0  0  0  0  0  0  0  0  0  0  0
  170.3070  171.7540  252.1220 C   0  0  2  0  0  0  0  0  0  0  0  0
  171.0230  173.0080  252.5990 C   0  0  0  0  0  0  0  0  0  0  0  0
  172.0860  173.3700  252.0910 O   0  0  0  0  0  0  0  0  0  0  0  0
  171.2760  170.6110  251.8450 C   0  0  0  0  0  0  0  0  0  0  0  0
  171.9150  170.0300  253.0950 C   0  0  0  0  0  0  0  0  0  0  0  0
  172.6440  168.7280  252.8260 C   0  0  0  0  0  0  0  0  0  0  0  0
  173.2540  168.5510  251.7720 O   0  0  0  0  0  0  0  0  0  0  0  0
  172.5820  167.8080  253.7810 N   0  0  0  0  0  0  0  0  0  0  0  0
  170.4290  173.6750  253.5850 N   0  0  0  0  0  0  0  0  0  0  0  0
  170.9350  174.9360  254.1020 C   0  0  2  0  0  0  0  0  0  0  0  0
  171.8090  174.8000  255.3410 C   0  0  0  0  0  0  0  0  0  0  0  0
  172.4150  175.7920  255.7600 O   0  0  0  0  0  0  0  0  0  0  0  0
  169.7530  175.8590  254.4110 C   0  0  0  0  0  0  0  0  0  0  0  0
  171.8930  173.6160  255.9350 N   0  0  0  0  0  0  0  0  0  0  0  0
  172.6310  173.4470  257.1710 C   0  0  0  0  0  0  0  0  0  0  0  0
  173.6830  172.3620  257.1080 C   0  0  0  0  0  0  0  0  0  0  0  0
  174.5040  172.2330  258.0230 O   0  0  0  0  0  0  0  0  0  0  0  0
  173.6460  171.5830  256.0190 N   0  0  0  0  0  0  0  0  0  0  0  0
  174.5350  170.4410  255.7580 C   0  0  2  0  0  0  0  0  0  0  0  0
  174.4700  169.4020  256.8740 C   0  0  0  0  0  0  0  0  0  0  0  0
  175.4590  168.7330  257.1840 O   0  0  0  0  0  0  0  0  0  0  0  0
  175.9830  170.8810  255.5090 C   0  0  0  0  0  0  0  0  0  0  0  0
  176.0970  171.5870  254.2860 O   0  0  0  0  0  0  0  0  0  0  0  0
  173.2930  169.2750  257.4770 N   0  0  0  0  0  0  0  0  0  0  0  0
  172.9240  168.1350  258.2950 C   0  0  2  0  0  0  0  0  0  0  0  0
  172.5370  166.9910  257.3610 C   0  0  0  0  0  0  0  0  0  0  0  0
  172.4330  167.1850  256.1480 O   0  0  0  0  0  0  0  0  0  0  0  0
  171.7750  168.5450  259.2220 C   0  0  2  0  0  0  0  0  0  0  0  0
  170.5380  168.5060  258.4990 O   0  0  0  0  0  0  0  0  0  0  0  0
  171.9970  169.9510  259.7660 C   0  0  0  0  0  0  0  0  0  0  0  0
  163.5240  171.9000  259.5050 N   0  0  0  0  0  0  0  0  0  0  0  0
  164.5030  172.8460  260.0210 C   0  0  2  0  0  0  0  0  0  0  0  0
  165.8160  172.6540  259.2760 C   0  0  0  0  0  0  0  0  0  0  0  0
  166.2470  171.5160  259.0610 O   0  0  0  0  0  0  0  0  0  0  0  0
  164.7180  172.6630  261.5230 C   0  0  0  0  0  0  0  0  0  0  0  0
  165.7580  173.5830  262.0960 C   0  0  0  0  0  0  0  0  0  0  0  0
  165.6100  174.9580  261.9990 C   0  0  0  0  0  0  0  0  0  0  0  0
  166.8920  173.0740  262.7120 C   0  0  0  0  0  0  0  0  0  0  0  0
  166.5680  175.8120  262.5170 C   0  0  0  0  0  0  0  0  0  0  0  0
  167.8560  173.9240  263.2320 C   0  0  0  0  0  0  0  0  0  0  0  0
  167.6920  175.2940  263.1340 C   0  0  0  0  0  0  0  0  0  0  0  0
  166.4240  173.7740  258.8610 N   0  0  0  0  0  0  0  0  0  0  0  0
  167.6260  173.8340  258.0220 C   0  0  2  0  0  0  0  0  0  0  0  0
  167.4530  173.1130  256.6850 C   0  0  0  0  0  0  0  0  0  0  0  0
  168.4380  172.6730  256.0820 O   0  0  0  0  0  0  0  0  0  0  0  0
  168.8680  173.3020  258.7550 C   0  0  0  0  0  0  0  0  0  0  0  0
  169.5190  174.3510  259.6330 C   0  0  0  0  0  0  0  0  0  0  0  0
  169.3140  175.5490  259.4430 O   0  0  0  0  0  0  0  0  0  0  0  0
  170.3150  173.9040  260.5970 N   0  0  0  0  0  0  0  0  0  0  0  0
  165.1480  174.0610  253.4140 N   0  0  0  0  0  0  0  0  0  0  0  0
  164.1760  175.0480  252.9700 C   0  0  2  0  0  0  0  0  0  0  0  0
  163.6900  174.7200  251.5640 C   0  0  0  0  0  0  0  0  0  0  0  0
  164.4220  174.1480  250.7530 O   0  0  0  0  0  0  0  0  0  0  0  0
  164.7670  176.4580  253.0100 C   0  0  0  0  0  0  0  0  0  0  0  0
  165.1350  176.9170  254.4040 C   0  0  0  0  0  0  0  0  0  0  0  0
  164.1720  177.0150  255.4040 C   0  0  0  0  0  0  0  0  0  0  0  0
  166.4410  177.2760  254.7140 C   0  0  0  0  0  0  0  0  0  0  0  0
  164.5050  177.4460  256.6780 C   0  0  0  0  0  0  0  0  0  0  0  0
  166.7840  177.7040  255.9840 C   0  0  0  0  0  0  0  0  0  0  0  0
  165.8120  177.7880  256.9610 C   0  0  0  0  0  0  0  0  0  0  0  0
  166.1470  178.2110  258.2260 O   0  0  0  0  0  0  0  0  0  0  0  0
  2  1  1  6
  3  2  1  0
  4  3  2  0
  5  2  1  0
  6  5  1  0
  7  6  1  0
  8  7  1  0
  9  8  1  0
 11 10  1  1
 12 11  1  0
 13 12  2  0
 14 11  1  0
 15 14  1  0
 16 15  2  0
 17 15  1  0
 18 16  1  0
 19 17  2  0
 20 19  1  0
 20 18  2  0
 21 20  1  0
 23 22  1  6
 24 23  1  0
 25 24  2  0
 26 23  1  0
 27 26  1  0
 28 27  1  0
 29 28  1  0
 30 29  1  0
 31 30  1  0
 32 30  2  0
 33 24  1  0
 34 33  1  0
 35 34  1  0
 36 35  2  0
 34 37  1  1
 38 37  1  0
 39 38  1  0
 40 38  1  0
 41 35  1  0
 42 41  1  0
 43 42  1  0
 44 43  2  0
 42 45  1  1
 46 45  1  0
 47 46  2  0
 48 46  1  0
 49 47  1  0
 50 48  2  0
 51 50  1  0
 51 49  2  0
 52 43  1  0
 53 52  1  0
 54 53  1  0
 55 54  2  0
 53 56  1  6
 57 56  1  0
 58 57  1  0
 59 58  1  0
 60 59  1  0
 61 60  1  0
 62 60  2  0
 63 54  1  0
 64 63  1  0
 65 64  1  0
 66 65  2  0
 64 67  1  6
 68 67  1  0
 69 68  1  0
 70 69  1  0
 71 70  1  0
 73 72  1  1
 74 73  1  0
 75 74  2  0
 76 73  1  0
 77 76  1  0
 78 77  2  0
 79 77  1  0
 80 78  1  0
 81 79  2  0
 82 80  2  0
 82 81  1  0
 83 82  1  0
 84 74  1  0
 85 84  1  0
 86 85  1  0
 87 86  2  0
 85 88  1  6
 89 88  1  0
 90 89  1  0
 91 90  2  0
 92 90  1  0
 93 86  1  0
 94 93  1  0
 95 94  1  0
 96 95  2  0
 94 97  1  1
 98 95  1  0
 99 98  1  0
100 99  1  0
101100  2  0
102100  1  0
103102  1  0
104103  1  0
105104  2  0
103106  1  1
107106  1  0
108104  1  0
109108  1  6
110109  1  0
111110  2  0
112109  1  0
113112  1  0
112114  1  6
116115  1  6
117116  1  0
118117  2  0
119116  1  0
120119  1  0
121120  2  0
122120  1  0
123121  1  0
124122  2  0
125124  1  0
125123  2  0
126117  1  0
127126  1  0
128127  1  0
129128  2  0
127130  1  1
131130  1  0
132131  2  0
133131  1  0
135134  1  6
136135  1  0
137136  2  0
138135  1  0
139138  1  0
140139  2  0
141139  1  0
142140  1  0
143141  2  0
144143  1  0
144142  2  0
145144  1  0
M  END
$$$$
