
     RDKit          3D

145144  0  0  0  0  0  0  0  0999 V2000
  225.2160  177.8970  243.4550 N   0  0  0  0  0  0  0  0  0  0  0  0
  226.6500  178.1420  243.5470 C   0  0  2  0  0  0  0  0  0  0  0  0
  227.2690  178.2290  242.1590 C   0  0  0  0  0  0  0  0  0  0  0  0
  228.0600  179.1350  241.8710 O   0  0  0  0  0  0  0  0  0  0  0  0
  227.3140  177.0430  244.3700 C   0  0  0  0  0  0  0  0  0  0  0  0
  226.8900  177.0360  245.8210 C   0  0  0  0  0  0  0  0  0  0  0  0
  227.5890  175.9370  246.5860 C   0  0  0  0  0  0  0  0  0  0  0  0
  227.2310  175.9870  248.0540 C   0  0  0  0  0  0  0  0  0  0  0  0
  225.7990  175.6660  248.2910 N   0  0  0  0  0  0  0  0  0  0  0  0
  228.6890  181.8120  240.8310 N   0  0  0  0  0  0  0  0  0  0  0  0
  230.1240  181.9930  240.9670 C   0  0  2  0  0  0  0  0  0  0  0  0
  230.9590  181.1770  239.9960 C   0  0  0  0  0  0  0  0  0  0  0  0
  232.1760  181.3780  239.9430 O   0  0  0  0  0  0  0  0  0  0  0  0
  230.5560  181.6610  242.3990 C   0  0  0  0  0  0  0  0  0  0  0  0
  229.6660  182.2800  243.4420 C   0  0  0  0  0  0  0  0  0  0  0  0
  229.3980  183.6400  243.4300 C   0  0  0  0  0  0  0  0  0  0  0  0
  229.0840  181.5070  244.4300 C   0  0  0  0  0  0  0  0  0  0  0  0
  228.5870  184.2110  244.3740 C   0  0  0  0  0  0  0  0  0  0  0  0
  228.2670  182.0700  245.3790 C   0  0  0  0  0  0  0  0  0  0  0  0
  228.0240  183.4220  245.3440 C   0  0  0  0  0  0  0  0  0  0  0  0
  227.2120  183.9950  246.2880 O   0  0  0  0  0  0  0  0  0  0  0  0
  234.2010  177.1170  242.4680 N   0  0  0  0  0  0  0  0  0  0  0  0
  234.3460  178.3160  243.2740 C   0  0  2  0  0  0  0  0  0  0  0  0
  233.1920  178.4190  244.2560 C   0  0  0  0  0  0  0  0  0  0  0  0
  232.0250  178.3090  243.8720 O   0  0  0  0  0  0  0  0  0  0  0  0
  234.4020  179.5570  242.3900 C   0  0  0  0  0  0  0  0  0  0  0  0
  234.6680  180.8310  243.1570 C   0  0  0  0  0  0  0  0  0  0  0  0
  234.9240  181.9880  242.2190 C   0  0  0  0  0  0  0  0  0  0  0  0
  236.0620  181.7340  241.3470 N   0  0  0  0  0  0  0  0  0  0  0  0
  237.3300  181.8800  241.7030 C   0  0  0  0  0  0  0  0  0  0  0  0
  237.6660  182.3050  242.9080 N   0  0  0  0  0  0  0  0  0  0  0  0
  238.2860  181.6000  240.8230 N   0  0  0  0  0  0  0  0  0  0  0  0
  233.5230  178.6250  245.5260 N   0  0  0  0  0  0  0  0  0  0  0  0
  232.5340  178.7130  246.5890 C   0  0  2  0  0  0  0  0  0  0  0  0
  232.2910  180.1390  247.0500 C   0  0  0  0  0  0  0  0  0  0  0  0
  231.1500  180.5080  247.3370 O   0  0  0  0  0  0  0  0  0  0  0  0
  232.9790  177.8610  247.7800 C   0  0  0  0  0  0  0  0  0  0  0  0
  232.0050  177.7270  248.9440 C   0  0  0  0  0  0  0  0  0  0  0  0
  230.7210  177.1170  248.4570 C   0  0  0  0  0  0  0  0  0  0  0  0
  232.6080  176.8800  250.0410 C   0  0  0  0  0  0  0  0  0  0  0  0
  233.3380  180.9550  247.1130 N   0  0  0  0  0  0  0  0  0  0  0  0
  233.2570  182.3080  247.6360 C   0  0  2  0  0  0  0  0  0  0  0  0
  233.5590  183.3030  246.5290 C   0  0  0  0  0  0  0  0  0  0  0  0
  234.5600  183.1620  245.8210 O   0  0  0  0  0  0  0  0  0  0  0  0
  234.2410  182.5090  248.7860 C   0  0  0  0  0  0  0  0  0  0  0  0
  233.9300  181.6920  249.9980 C   0  0  0  0  0  0  0  0  0  0  0  0
  232.9130  182.0650  250.8570 C   0  0  0  0  0  0  0  0  0  0  0  0
  234.6580  180.5540  250.2810 C   0  0  0  0  0  0  0  0  0  0  0  0
  232.6260  181.3140  251.9750 C   0  0  0  0  0  0  0  0  0  0  0  0
  234.3770  179.7990  251.3960 C   0  0  0  0  0  0  0  0  0  0  0  0
  233.3590  180.1800  252.2440 C   0  0  0  0  0  0  0  0  0  0  0  0
  232.6990  184.3070  246.3910 N   0  0  0  0  0  0  0  0  0  0  0  0
  232.9550  185.4300  245.5050 C   0  0  2  0  0  0  0  0  0  0  0  0
  232.1650  186.6240  246.0130 C   0  0  0  0  0  0  0  0  0  0  0  0
  231.0980  186.4670  246.6100 O   0  0  0  0  0  0  0  0  0  0  0  0
  232.5810  185.1140  244.0560 C   0  0  0  0  0  0  0  0  0  0  0  0
  233.3380  185.9280  243.0290 C   0  0  0  0  0  0  0  0  0  0  0  0
  232.9980  185.4930  241.6210 C   0  0  0  0  0  0  0  0  0  0  0  0
  233.7950  186.2080  240.6350 N   0  0  0  0  0  0  0  0  0  0  0  0
  233.4410  187.3620  240.0890 C   0  0  0  0  0  0  0  0  0  0  0  0
  232.3070  187.9580  240.4100 N   0  0  0  0  0  0  0  0  0  0  0  0
  234.2470  187.9320  239.1990 N   0  0  0  0  0  0  0  0  0  0  0  0
  232.7070  187.8200  245.7780 N   0  0  0  0  0  0  0  0  0  0  0  0
  232.0650  189.0370  246.2630 C   0  0  2  0  0  0  0  0  0  0  0  0
  230.7710  189.3390  245.5210 C   0  0  0  0  0  0  0  0  0  0  0  0
  229.8770  189.9810  246.0820 O   0  0  0  0  0  0  0  0  0  0  0  0
  233.0230  190.2190  246.1400 C   0  0  0  0  0  0  0  0  0  0  0  0
  234.2900  190.0850  246.9540 C   0  0  0  0  0  0  0  0  0  0  0  0
  233.9830  190.1660  248.4360 C   0  0  0  0  0  0  0  0  0  0  0  0
  235.2440  190.0290  249.2660 C   0  0  0  0  0  0  0  0  0  0  0  0
  236.1380  191.2040  249.0910 N   0  0  0  0  0  0  0  0  0  0  0  0
  240.2800  184.8020  249.8010 N   0  0  0  0  0  0  0  0  0  0  0  0
  239.0040  185.4880  249.9400 C   0  0  2  0  0  0  0  0  0  0  0  0
  238.9670  186.2440  251.2600 C   0  0  0  0  0  0  0  0  0  0  0  0
  239.0470  185.6370  252.3300 O   0  0  0  0  0  0  0  0  0  0  0  0
  237.8560  184.4890  249.8570 C   0  0  0  0  0  0  0  0  0  0  0  0
  236.4910  185.1150  249.9030 C   0  0  0  0  0  0  0  0  0  0  0  0
  236.0070  185.8430  248.8300 C   0  0  0  0  0  0  0  0  0  0  0  0
  235.6840  184.9690  251.0170 C   0  0  0  0  0  0  0  0  0  0  0  0
  234.7590  186.4110  248.8670 C   0  0  0  0  0  0  0  0  0  0  0  0
  234.4340  185.5310  251.0630 C   0  0  0  0  0  0  0  0  0  0  0  0
  233.9770  186.2510  249.9870 C   0  0  0  0  0  0  0  0  0  0  0  0
  232.7270  186.8150  250.0320 O   0  0  0  0  0  0  0  0  0  0  0  0
  238.8250  187.5630  251.1850 N   0  0  0  0  0  0  0  0  0  0  0  0
  238.7880  188.4160  252.3710 C   0  0  2  0  0  0  0  0  0  0  0  0
  237.3570  188.4430  252.8850 C   0  0  0  0  0  0  0  0  0  0  0  0
  236.5160  189.1860  252.3760 O   0  0  0  0  0  0  0  0  0  0  0  0
  239.2920  189.8140  252.0380 C   0  0  0  0  0  0  0  0  0  0  0  0
  239.4540  190.7250  253.2310 C   0  0  0  0  0  0  0  0  0  0  0  0
  240.1920  191.9950  252.8760 C   0  0  0  0  0  0  0  0  0  0  0  0
  240.0230  192.5370  251.7870 O   0  0  0  0  0  0  0  0  0  0  0  0
  241.0230  192.4730  253.7910 N   0  0  0  0  0  0  0  0  0  0  0  0
  237.0760  187.6280  253.8970 N   0  0  0  0  0  0  0  0  0  0  0  0
  235.7220  187.4960  254.4130 C   0  0  2  0  0  0  0  0  0  0  0  0
  235.4590  188.3410  255.6470 C   0  0  0  0  0  0  0  0  0  0  0  0
  234.2930  188.5620  255.9900 O   0  0  0  0  0  0  0  0  0  0  0  0
  235.4200  186.0330  254.7400 C   0  0  0  0  0  0  0  0  0  0  0  0
  236.4980  188.8090  256.3270 N   0  0  0  0  0  0  0  0  0  0  0  0
  236.2970  189.5360  257.5620 C   0  0  0  0  0  0  0  0  0  0  0  0
  236.6980  190.9920  257.5060 C   0  0  0  0  0  0  0  0  0  0  0  0
  236.4770  191.7300  258.4720 O   0  0  0  0  0  0  0  0  0  0  0  0
  237.3140  191.3950  256.3880 N   0  0  0  0  0  0  0  0  0  0  0  0
  237.8240  192.7550  256.1440 C   0  0  2  0  0  0  0  0  0  0  0  0
  238.8420  193.1950  257.1970 C   0  0  0  0  0  0  0  0  0  0  0  0
  239.0050  194.3860  257.4680 O   0  0  0  0  0  0  0  0  0  0  0  0
  236.6880  193.7750  256.0240 C   0  0  0  0  0  0  0  0  0  0  0  0
  235.9060  193.5240  254.8680 O   0  0  0  0  0  0  0  0  0  0  0  0
  239.5320  192.2250  257.7890 N   0  0  0  0  0  0  0  0  0  0  0  0
  240.7170  192.4620  258.5830 C   0  0  2  0  0  0  0  0  0  0  0  0
  241.8730  192.6850  257.6140 C   0  0  0  0  0  0  0  0  0  0  0  0
  241.7340  192.4270  256.4180 O   0  0  0  0  0  0  0  0  0  0  0  0
  240.9620  191.2650  259.5010 C   0  0  2  0  0  0  0  0  0  0  0  0
  241.5410  190.1990  258.7420 O   0  0  0  0  0  0  0  0  0  0  0  0
  239.6550  190.7880  260.1040 C   0  0  0  0  0  0  0  0  0  0  0  0
  242.2340  182.4030  259.5520 N   0  0  0  0  0  0  0  0  0  0  0  0
  240.8990  182.7170  260.0400 C   0  0  2  0  0  0  0  0  0  0  0  0
  240.3100  183.8690  259.2400 C   0  0  0  0  0  0  0  0  0  0  0  0
  240.9880  184.8730  258.9990 O   0  0  0  0  0  0  0  0  0  0  0  0
  240.9370  183.0710  261.5230 C   0  0  0  0  0  0  0  0  0  0  0  0
  239.5870  183.3410  262.1050 C   0  0  0  0  0  0  0  0  0  0  0  0
  238.6360  182.3390  262.1680 C   0  0  0  0  0  0  0  0  0  0  0  0
  239.2620  184.6020  262.5770 C   0  0  0  0  0  0  0  0  0  0  0  0
  237.3860  182.5850  262.6970 C   0  0  0  0  0  0  0  0  0  0  0  0
  238.0130  184.8570  263.1080 C   0  0  0  0  0  0  0  0  0  0  0  0
  237.0750  183.8460  263.1680 C   0  0  0  0  0  0  0  0  0  0  0  0
  239.0490  183.7050  258.8190 N   0  0  0  0  0  0  0  0  0  0  0  0
  238.2990  184.6360  257.9680 C   0  0  2  0  0  0  0  0  0  0  0  0
  238.9920  184.9160  256.6380 C   0  0  0  0  0  0  0  0  0  0  0  0
  238.7820  185.9730  256.0390 O   0  0  0  0  0  0  0  0  0  0  0  0
  237.9980  185.9580  258.6850 C   0  0  0  0  0  0  0  0  0  0  0  0
  236.8650  185.8380  259.6720 C   0  0  0  0  0  0  0  0  0  0  0  0
  236.0520  184.9190  259.5910 O   0  0  0  0  0  0  0  0  0  0  0  0
  236.7980  186.7720  260.6110 N   0  0  0  0  0  0  0  0  0  0  0  0
  239.4620  182.4860  253.4310 N   0  0  0  0  0  0  0  0  0  0  0  0
  239.1850  181.1600  252.9070 C   0  0  2  0  0  0  0  0  0  0  0  0
  239.7380  180.9990  251.5010 C   0  0  0  0  0  0  0  0  0  0  0  0
  239.7600  181.9430  250.7100 O   0  0  0  0  0  0  0  0  0  0  0  0
  237.6830  180.8910  252.8890 C   0  0  0  0  0  0  0  0  0  0  0  0
  237.0140  181.0820  254.2220 C   0  0  0  0  0  0  0  0  0  0  0  0
  237.4800  180.4250  255.3490 C   0  0  0  0  0  0  0  0  0  0  0  0
  235.9150  181.9160  254.3540 C   0  0  0  0  0  0  0  0  0  0  0  0
  236.8720  180.5900  256.5720 C   0  0  0  0  0  0  0  0  0  0  0  0
  235.2980  182.0890  255.5720 C   0  0  0  0  0  0  0  0  0  0  0  0
  235.7820  181.4230  256.6770 C   0  0  0  0  0  0  0  0  0  0  0  0
  235.1750  181.5900  257.8980 O   0  0  0  0  0  0  0  0  0  0  0  0
  2  1  1  6
  3  2  1  0
  4  3  2  0
  5  2  1  0
  6  5  1  0
  7  6  1  0
  8  7  1  0
  9  8  1  0
 11 10  1  1
 12 11  1  0
 13 12  2  0
 14 11  1  0
 15 14  1  0
 16 15  2  0
 17 15  1  0
 18 16  1  0
 19 17  2  0
 20 18  2  0
 20 19  1  0
 21 20  1  0
 23 22  1  6
 24 23  1  0
 25 24  2  0
 26 23  1  0
 27 26  1  0
 28 27  1  0
 29 28  1  0
 30 29  1  0
 31 30  1  0
 32 30  2  0
 33 24  1  0
 34 33  1  0
 35 34  1  0
 36 35  2  0
 34 37  1  1
 38 37  1  0
 39 38  1  0
 40 38  1  0
 41 35  1  0
 42 41  1  0
 43 42  1  0
 44 43  2  0
 42 45  1  1
 46 45  1  0
 47 46  2  0
 48 46  1  0
 49 47  1  0
 50 48  2  0
 51 49  2  0
 51 50  1  0
 52 43  1  0
 53 52  1  0
 54 53  1  0
 55 54  2  0
 53 56  1  6
 57 56  1  0
 58 57  1  0
 59 58  1  0
 60 59  1  0
 61 60  1  0
 62 60  2  0
 63 54  1  0
 64 63  1  0
 65 64  1  0
 66 65  2  0
 64 67  1  6
 68 67  1  0
 69 68  1  0
 70 69  1  0
 71 70  1  0
 73 72  1  1
 74 73  1  0
 75 74  2  0
 76 73  1  0
 77 76  1  0
 78 77  2  0
 79 77  1  0
 80 78  1  0
 81 79  2  0
 82 80  2  0
 82 81  1  0
 83 82  1  0
 84 74  1  0
 85 84  1  0
 86 85  1  0
 87 86  2  0
 85 88  1  6
 89 88  1  0
 90 89  1  0
 91 90  2  0
 92 90  1  0
 93 86  1  0
 94 93  1  0
 95 94  1  0
 96 95  2  0
 94 97  1  1
 98 95  1  0
 99 98  1  0
100 99  1  0
101100  2  0
102100  1  0
103102  1  0
104103  1  0
105104  2  0
103106  1  1
107106  1  0
108104  1  0
109108  1  6
110109  1  0
111110  2  0
112109  1  0
113112  1  0
112114  1  6
116115  1  6
117116  1  0
118117  2  0
119116  1  0
120119  1  0
121120  2  0
122120  1  0
123121  1  0
124122  2  0
125124  1  0
125123  2  0
126117  1  0
127126  1  0
128127  1  0
129128  2  0
127130  1  1
131130  1  0
132131  2  0
133131  1  0
135134  1  6
136135  1  0
137136  2  0
138135  1  0
139138  1  0
140139  2  0
141139  1  0
142140  1  0
143141  2  0
144143  1  0
144142  2  0
145144  1  0
M  END
$$$$
