
     RDKit          3D

140139  0  0  0  0  0  0  0  0999 V2000
  -38.4030  -12.8110  -31.9180 N   0  0  0  0  0  0  0  0  0  0  0  0
  -38.1940  -11.8200  -30.8680 C   0  0  2  0  0  0  0  0  0  0  0  0
  -39.5260  -11.2700  -30.3760 C   0  0  0  0  0  0  0  0  0  0  0  0
  -39.8190  -11.2920  -29.1740 O   0  0  0  0  0  0  0  0  0  0  0  0
  -37.2990  -10.6920  -31.3810 C   0  0  0  0  0  0  0  0  0  0  0  0
  -36.9130   -9.6770  -30.3280 C   0  0  0  0  0  0  0  0  0  0  0  0
  -36.0010   -9.9960  -29.3320 C   0  0  0  0  0  0  0  0  0  0  0  0
  -37.4500   -8.3950  -30.3370 C   0  0  0  0  0  0  0  0  0  0  0  0
  -35.6410   -9.0710  -28.3690 C   0  0  0  0  0  0  0  0  0  0  0  0
  -37.0950   -7.4630  -29.3790 C   0  0  0  0  0  0  0  0  0  0  0  0
  -36.1900   -7.8070  -28.3980 C   0  0  0  0  0  0  0  0  0  0  0  0
  -35.8330   -6.8830  -27.4430 O   0  0  0  0  0  0  0  0  0  0  0  0
  -40.3520  -10.7760  -31.3000 N   0  0  0  0  0  0  0  0  0  0  0  0
  -41.6270  -10.1720  -30.9340 C   0  0  2  0  0  0  0  0  0  0  0  0
  -42.7760  -11.1750  -30.8800 C   0  0  0  0  0  0  0  0  0  0  0  0
  -43.8320  -10.8590  -30.3120 O   0  0  0  0  0  0  0  0  0  0  0  0
  -41.9790   -9.0350  -31.9130 C   0  0  0  0  0  0  0  0  0  0  0  0
  -40.9690   -7.9010  -31.7950 C   0  0  0  0  0  0  0  0  0  0  0  0
  -42.0370   -9.5520  -33.3480 C   0  0  0  0  0  0  0  0  0  0  0  0
  -42.6100  -12.3660  -31.4510 N   0  0  0  0  0  0  0  0  0  0  0  0
  -43.6550  -13.3890  -31.4740 C   0  0  2  0  0  0  0  0  0  0  0  0
  -43.0630  -14.7050  -30.9890 C   0  0  0  0  0  0  0  0  0  0  0  0
  -42.9320  -15.6660  -31.7570 O   0  0  0  0  0  0  0  0  0  0  0  0
  -44.2240  -13.5380  -32.8860 C   0  0  0  0  0  0  0  0  0  0  0  0
  -45.0070  -12.3350  -33.3780 C   0  0  0  0  0  0  0  0  0  0  0  0
  -45.3890  -12.4830  -34.8450 C   0  0  0  0  0  0  0  0  0  0  0  0
  -46.3230  -13.5780  -35.0890 N   0  0  0  0  0  0  0  0  0  0  0  0
  -46.7150  -13.9700  -36.2980 C   0  0  0  0  0  0  0  0  0  0  0  0
  -46.2520  -13.3610  -37.3820 N   0  0  0  0  0  0  0  0  0  0  0  0
  -47.5710  -14.9740  -36.4250 N   0  0  0  0  0  0  0  0  0  0  0  0
  -62.7910   -2.3750  -19.2130 N   0  0  0  0  0  0  0  0  0  0  0  0
  -62.2100   -3.6270  -18.7220 C   0  0  2  0  0  0  0  0  0  0  0  0
  -60.8720   -3.4670  -18.0220 C   0  0  0  0  0  0  0  0  0  0  0  0
  -60.2420   -4.4760  -17.6960 O   0  0  0  0  0  0  0  0  0  0  0  0
  -62.0620   -4.4540  -20.0080 C   0  0  0  0  0  0  0  0  0  0  0  0
  -61.9400   -3.4460  -21.1100 C   0  0  0  0  0  0  0  0  0  0  0  0
  -62.3510   -2.0880  -20.5880 C   0  0  0  0  0  0  0  0  0  0  0  0
  -60.4210   -2.2370  -17.7860 N   0  0  0  0  0  0  0  0  0  0  0  0
  -59.3410   -2.0470  -16.8320 C   0  0  2  0  0  0  0  0  0  0  0  0
  -59.8310   -2.2460  -15.4030 C   0  0  0  0  0  0  0  0  0  0  0  0
  -59.0120   -2.4290  -14.4950 O   0  0  0  0  0  0  0  0  0  0  0  0
  -58.7660   -0.6460  -16.9880 C   0  0  0  0  0  0  0  0  0  0  0  0
  -58.2610   -0.3490  -18.3840 C   0  0  0  0  0  0  0  0  0  0  0  0
  -57.7430    1.0660  -18.5110 C   0  0  0  0  0  0  0  0  0  0  0  0
  -57.8840    1.8390  -17.5380 O   0  0  0  0  0  0  0  0  0  0  0  0
  -57.1910    1.4050  -19.5790 O   0  0  0  0  0  0  0  0  0  0  0  0
  -55.3870  -13.1050  -22.1120 N   0  0  0  0  0  0  0  0  0  0  0  0
  -54.3140  -12.4960  -22.8900 C   0  0  2  0  0  0  0  0  0  0  0  0
  -54.0740  -11.0540  -22.4620 C   0  0  0  0  0  0  0  0  0  0  0  0
  -52.9260  -10.6030  -22.3810 O   0  0  0  0  0  0  0  0  0  0  0  0
  -54.6480  -12.5580  -24.3820 C   0  0  2  0  0  0  0  0  0  0  0  0
  -55.9370  -11.9720  -24.6080 O   0  0  0  0  0  0  0  0  0  0  0  0
  -54.6540  -13.9980  -24.8760 C   0  0  0  0  0  0  0  0  0  0  0  0
  -55.1490  -10.3120  -22.1870 N   0  0  0  0  0  0  0  0  0  0  0  0
  -55.0030   -8.9280  -21.7520 C   0  0  2  0  0  0  0  0  0  0  0  0
  -54.2520   -8.8420  -20.4290 C   0  0  0  0  0  0  0  0  0  0  0  0
  -53.2390   -8.1410  -20.3200 O   0  0  0  0  0  0  0  0  0  0  0  0
  -56.3770   -8.2760  -21.6230 C   0  0  0  0  0  0  0  0  0  0  0  0
  -57.0850   -7.8910  -22.9190 C   0  0  0  0  0  0  0  0  0  0  0  0
  -58.5700   -7.6880  -22.6550 C   0  0  0  0  0  0  0  0  0  0  0  0
  -56.4710   -6.6360  -23.5100 C   0  0  0  0  0  0  0  0  0  0  0  0
  -54.7340   -9.5580  -19.4090 N   0  0  0  0  0  0  0  0  0  0  0  0
  -54.1600   -9.4380  -18.0710 C   0  0  2  0  0  0  0  0  0  0  0  0
  -52.6980   -9.8720  -18.0740 C   0  0  0  0  0  0  0  0  0  0  0  0
  -51.8130   -9.1380  -17.6180 O   0  0  0  0  0  0  0  0  0  0  0  0
  -54.9860  -10.2560  -17.0600 C   0  0  2  0  0  0  0  0  0  0  0  0
  -56.3820   -9.6490  -16.8920 C   0  0  0  0  0  0  0  0  0  0  0  0
  -54.2690  -10.3250  -15.7180 C   0  0  0  0  0  0  0  0  0  0  0  0
  -56.4060   -8.3820  -16.0600 C   0  0  0  0  0  0  0  0  0  0  0  0
  -52.4240  -11.0720  -18.5830 N   0  0  0  0  0  0  0  0  0  0  0  0
  -51.0710  -11.6200  -18.5780 C   0  0  2  0  0  0  0  0  0  0  0  0
  -50.1030  -10.8270  -19.4590 C   0  0  0  0  0  0  0  0  0  0  0  0
  -48.9080  -11.1420  -19.4770 O   0  0  0  0  0  0  0  0  0  0  0  0
  -51.1210  -13.0880  -19.0150 C   0  0  0  0  0  0  0  0  0  0  0  0
  -51.9510  -13.9680  -18.1240 C   0  0  0  0  0  0  0  0  0  0  0  0
  -52.8610  -14.8780  -18.6190 N   0  0  0  0  0  0  0  0  0  0  0  0
  -51.9970  -14.0890  -16.7750 C   0  0  0  0  0  0  0  0  0  0  0  0
  -53.4370  -15.5160  -17.6150 C   0  0  0  0  0  0  0  0  0  0  0  0
  -52.9300  -15.0550  -16.4850 N   0  0  0  0  0  0  0  0  0  0  0  0
  -50.5860   -9.8070  -20.1690 N   0  0  0  0  0  0  0  0  0  0  0  0
  -49.7600   -8.9840  -21.0560 C   0  0  2  0  0  0  0  0  0  0  0  0
  -49.1750   -9.8370  -22.1830 C   0  0  0  0  0  0  0  0  0  0  0  0
  -47.9700   -9.8570  -22.4290 O   0  0  0  0  0  0  0  0  0  0  0  0
  -48.6410   -8.2630  -20.2910 C   0  0  0  0  0  0  0  0  0  0  0  0
  -47.7750   -7.3830  -21.2060 C   0  0  0  0  0  0  0  0  0  0  0  0
  -46.5130   -6.9260  -20.5370 C   0  0  0  0  0  0  0  0  0  0  0  0
  -46.7970   -6.0460  -19.4200 N   0  0  0  0  0  0  0  0  0  0  0  0
  -47.0870   -4.7630  -19.5530 C   0  0  0  0  0  0  0  0  0  0  0  0
  -47.3440   -4.0360  -18.4790 N   0  0  0  0  0  0  0  0  0  0  0  0
  -47.1310   -4.2090  -20.7590 N   0  0  0  0  0  0  0  0  0  0  0  0
  -50.0370  -10.6020  -22.8340 N   0  0  0  0  0  0  0  0  0  0  0  0
  -49.6460  -11.3110  -24.0490 C   0  0  2  0  0  0  0  0  0  0  0  0
  -50.6540  -11.0450  -25.1530 C   0  0  0  0  0  0  0  0  0  0  0  0
  -51.0420  -11.9390  -25.9150 O   0  0  0  0  0  0  0  0  0  0  0  0
  -49.4290  -12.7980  -23.7840 C   0  0  0  0  0  0  0  0  0  0  0  0
  -48.0090  -13.0740  -23.2720 C   0  0  0  0  0  0  0  0  0  0  0  0
  -47.7150  -14.5480  -23.0590 C   0  0  0  0  0  0  0  0  0  0  0  0
  -46.2220  -14.7540  -22.8150 C   0  0  0  0  0  0  0  0  0  0  0  0
  -45.8930  -16.0590  -22.1790 N   0  0  0  0  0  0  0  0  0  0  0  0
  -51.0900   -9.7920  -25.2420 N   0  0  0  0  0  0  0  0  0  0  0  0
  -51.9840   -9.3270  -26.2870 C   0  0  2  0  0  0  0  0  0  0  0  0
  -51.1430   -8.7660  -27.4350 C   0  0  0  0  0  0  0  0  0  0  0  0
  -49.9210   -8.9330  -27.4750 O   0  0  0  0  0  0  0  0  0  0  0  0
  -52.9550   -8.2950  -25.7200 C   0  0  0  0  0  0  0  0  0  0  0  0
  -51.7860   -8.0900  -28.3820 N   0  0  0  0  0  0  0  0  0  0  0  0
  -51.0920   -7.5280  -29.5370 C   0  0  2  0  0  0  0  0  0  0  0  0
  -51.4230   -6.0460  -29.6610 C   0  0  0  0  0  0  0  0  0  0  0  0
  -52.6060   -5.6940  -29.7520 O   0  0  0  0  0  0  0  0  0  0  0  0
  -51.4710   -8.2740  -30.8260 C   0  0  0  0  0  0  0  0  0  0  0  0
  -50.8160   -7.6130  -32.0190 C   0  0  0  0  0  0  0  0  0  0  0  0
  -51.0790   -9.7340  -30.7300 C   0  0  0  0  0  0  0  0  0  0  0  0
  -50.4170   -5.1470  -29.7090 N   0  0  0  0  0  0  0  0  0  0  0  0
  -50.7040   -3.7050  -29.7840 C   0  0  2  0  0  0  0  0  0  0  0  0
  -51.8320   -3.3580  -30.7410 C   0  0  0  0  0  0  0  0  0  0  0  0
  -52.6790   -2.5150  -30.4280 O   0  0  0  0  0  0  0  0  0  0  0  0
  -49.3650   -3.1130  -30.2490 C   0  0  0  0  0  0  0  0  0  0  0  0
  -48.3500   -4.0270  -29.6580 C   0  0  0  0  0  0  0  0  0  0  0  0
  -48.9660   -5.4140  -29.6920 C   0  0  0  0  0  0  0  0  0  0  0  0
  -51.8680   -4.0140  -31.9000 N   0  0  0  0  0  0  0  0  0  0  0  0
  -52.9580   -3.7710  -32.8310 C   0  0  0  0  0  0  0  0  0  0  0  0
  -54.2830   -4.2900  -32.3080 C   0  0  0  0  0  0  0  0  0  0  0  0
  -55.2970   -3.5860  -32.3360 O   0  0  0  0  0  0  0  0  0  0  0  0
  -55.0940   -4.8290  -29.2890 N   0  0  0  0  0  0  0  0  0  0  0  0
  -55.4070   -4.3980  -27.9260 C   0  0  2  0  0  0  0  0  0  0  0  0
  -56.8210   -3.8330  -27.8730 C   0  0  0  0  0  0  0  0  0  0  0  0
  -57.6390   -4.2220  -27.0310 O   0  0  0  0  0  0  0  0  0  0  0  0
  -54.3750   -3.3660  -27.4350 C   0  0  0  0  0  0  0  0  0  0  0  0
  -54.8350   -2.7160  -26.1340 C   0  0  0  0  0  0  0  0  0  0  0  0
  -53.0160   -3.9970  -27.2890 C   0  0  0  0  0  0  0  0  0  0  0  0
  -59.8170   -5.4530  -25.8730 N   0  0  0  0  0  0  0  0  0  0  0  0
  -60.3680   -4.6200  -24.8120 C   0  0  2  0  0  0  0  0  0  0  0  0
  -61.8810   -4.4970  -24.9440 C   0  0  0  0  0  0  0  0  0  0  0  0
  -62.6140   -4.6530  -23.9610 O   0  0  0  0  0  0  0  0  0  0  0  0
  -59.6940   -3.2480  -24.8420 C   0  0  0  0  0  0  0  0  0  0  0  0
  -59.7400   -2.5090  -23.5230 C   0  0  0  0  0  0  0  0  0  0  0  0
  -59.0340   -1.1720  -23.6050 C   0  0  0  0  0  0  0  0  0  0  0  0
  -59.6170   -0.2100  -22.6730 N   0  0  0  0  0  0  0  0  0  0  0  0
  -60.7890    0.3940  -22.8580 C   0  0  0  0  0  0  0  0  0  0  0  0
  -61.2400    1.2560  -21.9570 N   0  0  0  0  0  0  0  0  0  0  0  0
  -61.5130    0.1370  -23.9400 N   0  0  0  0  0  0  0  0  0  0  0  0
  2  1  1  6
  3  2  1  0
  4  3  2  0
  5  2  1  0
  6  5  1  0
  7  6  2  0
  8  6  1  0
  9  7  1  0
 10  8  2  0
 11 10  1  0
 11  9  2  0
 12 11  1  0
 13  3  1  0
 14 13  1  6
 15 14  1  0
 16 15  2  0
 17 14  1  0
 18 17  1  0
 19 17  1  0
 20 15  1  0
 21 20  1  0
 22 21  1  0
 23 22  2  0
 21 24  1  6
 25 24  1  0
 26 25  1  0
 27 26  1  0
 28 27  1  0
 29 28  1  0
 30 28  2  0
 32 31  1  0
 32 33  1  6
 34 33  2  0
 35 32  1  0
 36 35  1  0
 37 36  1  0
 37 31  1  0
 38 33  1  0
 39 38  1  0
 40 39  1  0
 41 40  2  0
 39 42  1  1
 43 42  1  0
 44 43  1  0
 45 44  2  0
 46 44  1  0
 48 47  1  1
 49 48  1  0
 50 49  2  0
 51 48  1  0
 52 51  1  0
 51 53  1  1
 54 49  1  0
 55 54  1  0
 56 55  1  0
 57 56  2  0
 55 58  1  1
 59 58  1  0
 60 59  1  0
 61 59  1  0
 62 56  1  0
 63 62  1  6
 64 63  1  0
 65 64  2  0
 66 63  1  0
 67 66  1  0
 66 68  1  1
 69 67  1  0
 70 64  1  0
 71 70  1  0
 72 71  1  0
 73 72  2  0
 71 74  1  6
 75 74  1  0
 76 75  1  0
 77 75  2  0
 78 76  2  0
 79 78  1  0
 79 77  1  0
 80 72  1  0
 81 80  1  0
 82 81  1  0
 83 82  2  0
 81 84  1  1
 85 84  1  0
 86 85  1  0
 87 86  1  0
 88 87  1  0
 89 88  1  0
 90 88  2  0
 91 82  1  0
 92 91  1  0
 93 92  1  0
 94 93  2  0
 92 95  1  1
 96 95  1  0
 97 96  1  0
 98 97  1  0
 99 98  1  0
100 93  1  0
101100  1  0
102101  1  0
103102  2  0
101104  1  1
105102  1  0
106105  1  1
107106  1  0
108107  2  0
109106  1  0
110109  1  0
111109  1  0
112107  1  0
113112  1  0
113114  1  6
115114  2  0
116113  1  0
117116  1  0
118112  1  0
118117  1  0
119114  1  0
120119  1  0
121120  1  0
122121  2  0
124123  1  6
125124  1  0
126125  2  0
127124  1  0
128127  1  0
129127  1  0
131130  1  6
132131  1  0
133132  2  0
134131  1  0
135134  1  0
136135  1  0
137136  1  0
138137  1  0
139138  1  0
140138  2  0
M  END
$$$$
