
     RDKit          3D

136135  0  0  0  0  0  0  0  0999 V2000
  -38.1350  -12.7030  -31.8620 N   0  0  0  0  0  0  0  0  0  0  0  0
  -37.9140  -11.7110  -30.8150 C   0  0  2  0  0  0  0  0  0  0  0  0
  -39.2350  -11.1540  -30.3000 C   0  0  0  0  0  0  0  0  0  0  0  0
  -39.5070  -11.1720  -29.0930 O   0  0  0  0  0  0  0  0  0  0  0  0
  -37.0310  -10.5870  -31.3600 C   0  0  0  0  0  0  0  0  0  0  0  0
  -36.6260   -9.5560  -30.3340 C   0  0  0  0  0  0  0  0  0  0  0  0
  -35.6890   -9.8500  -29.3540 C   0  0  0  0  0  0  0  0  0  0  0  0
  -37.1860   -8.2850  -30.3480 C   0  0  0  0  0  0  0  0  0  0  0  0
  -35.3210   -8.9050  -28.4160 C   0  0  0  0  0  0  0  0  0  0  0  0
  -36.8260   -7.3360  -29.4160 C   0  0  0  0  0  0  0  0  0  0  0  0
  -35.8930   -7.6500  -28.4520 C   0  0  0  0  0  0  0  0  0  0  0  0
  -35.5330   -6.7020  -27.5220 O   0  0  0  0  0  0  0  0  0  0  0  0
  -40.0740  -10.6550  -31.2090 N   0  0  0  0  0  0  0  0  0  0  0  0
  -41.3420  -10.0430  -30.8320 C   0  0  2  0  0  0  0  0  0  0  0  0
  -42.5040  -11.0290  -30.7730 C   0  0  0  0  0  0  0  0  0  0  0  0
  -43.5500  -10.7020  -30.1950 O   0  0  0  0  0  0  0  0  0  0  0  0
  -41.6930   -8.8970  -31.8010 C   0  0  0  0  0  0  0  0  0  0  0  0
  -40.6760   -7.7740  -31.6770 C   0  0  0  0  0  0  0  0  0  0  0  0
  -41.7570   -9.4050  -33.2390 C   0  0  0  0  0  0  0  0  0  0  0  0
  -42.3550  -12.2180  -31.3470 N   0  0  0  0  0  0  0  0  0  0  0  0
  -43.4090  -13.2310  -31.3780 C   0  0  2  0  0  0  0  0  0  0  0  0
  -42.8210  -14.5480  -30.8910 C   0  0  0  0  0  0  0  0  0  0  0  0
  -42.6800  -15.5070  -31.6580 O   0  0  0  0  0  0  0  0  0  0  0  0
  -43.9740  -13.3560  -32.7930 C   0  0  0  0  0  0  0  0  0  0  0  0
  -44.7420  -12.1190  -33.2520 C   0  0  0  0  0  0  0  0  0  0  0  0
  -45.1430  -12.1890  -34.7200 C   0  0  0  0  0  0  0  0  0  0  0  0
  -46.0950  -13.2550  -35.0110 N   0  0  0  0  0  0  0  0  0  0  0  0
  -46.5110  -13.5680  -36.2360 C   0  0  0  0  0  0  0  0  0  0  0  0
  -46.0560  -12.8990  -37.2880 N   0  0  0  0  0  0  0  0  0  0  0  0
  -47.3810  -14.5520  -36.4100 N   0  0  0  0  0  0  0  0  0  0  0  0
  -62.6880   -2.1710  -19.3370 N   0  0  0  0  0  0  0  0  0  0  0  0
  -62.1250   -3.4410  -18.8650 C   0  0  2  0  0  0  0  0  0  0  0  0
  -60.8010   -3.3100  -18.1310 C   0  0  0  0  0  0  0  0  0  0  0  0
  -60.1840   -4.3320  -17.8200 O   0  0  0  0  0  0  0  0  0  0  0  0
  -61.9350   -4.2250  -20.1730 C   0  0  0  0  0  0  0  0  0  0  0  0
  -61.7690   -3.1730  -21.2390 C   0  0  0  0  0  0  0  0  0  0  0  0
  -62.1970   -1.8360  -20.6840 C   0  0  0  0  0  0  0  0  0  0  0  0
  -60.3480   -2.0870  -17.8610 N   0  0  0  0  0  0  0  0  0  0  0  0
  -59.2740   -1.8720  -16.9020 C   0  0  2  0  0  0  0  0  0  0  0  0
  -59.7370   -2.0760  -15.4660 C   0  0  0  0  0  0  0  0  0  0  0  0
  -58.8970   -2.2180  -14.5710 O   0  0  0  0  0  0  0  0  0  0  0  0
  -58.7200   -0.4600  -17.0990 C   0  0  0  0  0  0  0  0  0  0  0  0
  -58.1940   -0.2250  -18.5110 C   0  0  0  0  0  0  0  0  0  0  0  0
  -57.6940    1.1890  -18.7380 C   0  0  0  0  0  0  0  0  0  0  0  0
  -57.8260    2.0280  -17.8230 O   0  0  0  0  0  0  0  0  0  0  0  0
  -57.1720    1.4620  -19.8400 O   0  0  0  0  0  0  0  0  0  0  0  0
  -55.1240  -13.0740  -22.1690 N   0  0  0  0  0  0  0  0  0  0  0  0
  -54.0290  -12.4680  -22.9210 C   0  0  2  0  0  0  0  0  0  0  0  0
  -53.7780  -11.0360  -22.4660 C   0  0  0  0  0  0  0  0  0  0  0  0
  -52.6250  -10.5990  -22.3630 O   0  0  0  0  0  0  0  0  0  0  0  0
  -54.3380  -12.5080  -24.4170 C   0  0  2  0  0  0  0  0  0  0  0  0
  -55.6150  -11.9060  -24.6610 O   0  0  0  0  0  0  0  0  0  0  0  0
  -54.3510  -13.9440  -24.9220 C   0  0  0  0  0  0  0  0  0  0  0  0
  -54.8490  -10.2910  -22.1900 N   0  0  0  0  0  0  0  0  0  0  0  0
  -54.7090   -8.9110  -21.7370 C   0  0  2  0  0  0  0  0  0  0  0  0
  -53.9680   -8.8320  -20.4060 C   0  0  0  0  0  0  0  0  0  0  0  0
  -52.9640   -8.1190  -20.2850 O   0  0  0  0  0  0  0  0  0  0  0  0
  -56.0910   -8.2640  -21.6320 C   0  0  0  0  0  0  0  0  0  0  0  0
  -56.7490   -7.8880  -22.9630 C   0  0  0  0  0  0  0  0  0  0  0  0
  -58.2470   -7.6750  -22.7930 C   0  0  0  0  0  0  0  0  0  0  0  0
  -56.1040   -6.6420  -23.5530 C   0  0  0  0  0  0  0  0  0  0  0  0
  -54.4460   -9.5580  -19.3920 N   0  0  0  0  0  0  0  0  0  0  0  0
  -53.8690   -9.4340  -18.0530 C   0  0  2  0  0  0  0  0  0  0  0  0
  -52.4020   -9.8460  -18.0580 C   0  0  0  0  0  0  0  0  0  0  0  0
  -51.5260   -9.0960  -17.6110 O   0  0  0  0  0  0  0  0  0  0  0  0
  -54.6800  -10.2690  -17.0440 C   0  0  2  0  0  0  0  0  0  0  0  0
  -56.0840   -9.6830  -16.8720 C   0  0  0  0  0  0  0  0  0  0  0  0
  -53.9490  -10.3550  -15.7090 C   0  0  0  0  0  0  0  0  0  0  0  0
  -56.1260   -8.4180  -16.0380 C   0  0  0  0  0  0  0  0  0  0  0  0
  -52.1100  -11.0450  -18.5610 N   0  0  0  0  0  0  0  0  0  0  0  0
  -50.7430  -11.5590  -18.5530 C   0  0  2  0  0  0  0  0  0  0  0  0
  -49.8010  -10.7570  -19.4450 C   0  0  0  0  0  0  0  0  0  0  0  0
  -48.6050  -11.0670  -19.4780 O   0  0  0  0  0  0  0  0  0  0  0  0
  -50.7380  -13.0400  -18.9310 C   0  0  0  0  0  0  0  0  0  0  0  0
  -51.5120  -13.8990  -17.9780 C   0  0  0  0  0  0  0  0  0  0  0  0
  -52.4050  -14.8660  -18.3900 N   0  0  0  0  0  0  0  0  0  0  0  0
  -51.5290  -13.9260  -16.6240 C   0  0  0  0  0  0  0  0  0  0  0  0
  -52.9330  -15.4540  -17.3320 C   0  0  0  0  0  0  0  0  0  0  0  0
  -52.4190  -14.9010  -16.2480 N   0  0  0  0  0  0  0  0  0  0  0  0
  -50.3010   -9.7470  -20.1620 N   0  0  0  0  0  0  0  0  0  0  0  0
  -49.4770   -8.9280  -21.0520 C   0  0  2  0  0  0  0  0  0  0  0  0
  -48.8800   -9.7700  -22.1790 C   0  0  0  0  0  0  0  0  0  0  0  0
  -47.6700   -9.7840  -22.4090 O   0  0  0  0  0  0  0  0  0  0  0  0
  -48.3820   -8.2000  -20.2640 C   0  0  0  0  0  0  0  0  0  0  0  0
  -47.5000   -7.2820  -21.1070 C   0  0  0  0  0  0  0  0  0  0  0  0
  -46.2730   -6.8100  -20.3460 C   0  0  0  0  0  0  0  0  0  0  0  0
  -46.6170   -5.9480  -19.2200 N   0  0  0  0  0  0  0  0  0  0  0  0
  -46.9120   -4.6560  -19.3310 C   0  0  0  0  0  0  0  0  0  0  0  0
  -47.2210   -3.9520  -18.2520 N   0  0  0  0  0  0  0  0  0  0  0  0
  -46.9040   -4.0670  -20.5210 N   0  0  0  0  0  0  0  0  0  0  0  0
  -49.7390  -10.5230  -22.8570 N   0  0  0  0  0  0  0  0  0  0  0  0
  -49.3490  -11.2280  -24.0720 C   0  0  2  0  0  0  0  0  0  0  0  0
  -50.3470  -10.9510  -25.1880 C   0  0  0  0  0  0  0  0  0  0  0  0
  -50.7180  -11.8390  -25.9610 O   0  0  0  0  0  0  0  0  0  0  0  0
  -49.1910  -12.7210  -23.7970 C   0  0  0  0  0  0  0  0  0  0  0  0
  -47.8140  -13.0360  -23.2270 C   0  0  0  0  0  0  0  0  0  0  0  0
  -47.5710  -14.5130  -22.9950 C   0  0  0  0  0  0  0  0  0  0  0  0
  -46.0980  -14.7550  -22.6890 C   0  0  0  0  0  0  0  0  0  0  0  0
  -45.8390  -16.0750  -22.0560 N   0  0  0  0  0  0  0  0  0  0  0  0
  -50.7930   -9.6970  -25.2770 N   0  0  0  0  0  0  0  0  0  0  0  0
  -51.6820   -9.2350  -26.3310 C   0  0  2  0  0  0  0  0  0  0  0  0
  -50.8510   -8.6590  -27.4800 C   0  0  0  0  0  0  0  0  0  0  0  0
  -49.6290   -8.8230  -27.5310 O   0  0  0  0  0  0  0  0  0  0  0  0
  -52.6690   -8.2120  -25.7720 C   0  0  0  0  0  0  0  0  0  0  0  0
  -51.5050   -7.9770  -28.4180 N   0  0  0  0  0  0  0  0  0  0  0  0
  -50.8230   -7.3930  -29.5720 C   0  0  2  0  0  0  0  0  0  0  0  0
  -51.1770   -5.9120  -29.6760 C   0  0  0  0  0  0  0  0  0  0  0  0
  -52.3660   -5.5700  -29.7270 O   0  0  0  0  0  0  0  0  0  0  0  0
  -51.1970   -8.1340  -30.8670 C   0  0  0  0  0  0  0  0  0  0  0  0
  -50.5520   -7.4580  -32.0660 C   0  0  0  0  0  0  0  0  0  0  0  0
  -50.7940   -9.5990  -30.7840 C   0  0  0  0  0  0  0  0  0  0  0  0
  -50.1800   -4.9980  -29.7180 N   0  0  0  0  0  0  0  0  0  0  0  0
  -50.4800   -3.5580  -29.7860 C   0  0  2  0  0  0  0  0  0  0  0  0
  -51.5980   -3.1840  -30.7460 C   0  0  0  0  0  0  0  0  0  0  0  0
  -52.4310   -2.3270  -30.4320 O   0  0  0  0  0  0  0  0  0  0  0  0
  -49.1410   -2.9520  -30.2320 C   0  0  0  0  0  0  0  0  0  0  0  0
  -48.1270   -3.8610  -29.6410 C   0  0  0  0  0  0  0  0  0  0  0  0
  -48.7270   -5.2480  -29.6890 C   0  0  0  0  0  0  0  0  0  0  0  0
  -54.9260   -4.6230  -29.3510 N   0  0  0  0  0  0  0  0  0  0  0  0
  -55.2650   -4.1960  -27.9930 C   0  0  2  0  0  0  0  0  0  0  0  0
  -56.6760   -3.6260  -27.9580 C   0  0  0  0  0  0  0  0  0  0  0  0
  -57.5050   -4.0140  -27.1260 O   0  0  0  0  0  0  0  0  0  0  0  0
  -54.2410   -3.1700  -27.4730 C   0  0  0  0  0  0  0  0  0  0  0  0
  -54.7580   -2.4990  -26.2050 C   0  0  0  0  0  0  0  0  0  0  0  0
  -52.9070   -3.8350  -27.2030 C   0  0  0  0  0  0  0  0  0  0  0  0
  -59.6250   -5.2780  -25.9810 N   0  0  0  0  0  0  0  0  0  0  0  0
  -60.1850   -4.4400  -24.9290 C   0  0  2  0  0  0  0  0  0  0  0  0
  -61.6980   -4.3070  -25.0760 C   0  0  0  0  0  0  0  0  0  0  0  0
  -62.4360   -4.4240  -24.0920 O   0  0  0  0  0  0  0  0  0  0  0  0
  -59.4990   -3.0730  -24.9470 C   0  0  0  0  0  0  0  0  0  0  0  0
  -59.5600   -2.3410  -23.6230 C   0  0  0  0  0  0  0  0  0  0  0  0
  -58.8390   -1.0060  -23.6660 C   0  0  0  0  0  0  0  0  0  0  0  0
  -59.4110   -0.0540  -22.7190 N   0  0  0  0  0  0  0  0  0  0  0  0
  -60.5670    0.5780  -22.8900 C   0  0  0  0  0  0  0  0  0  0  0  0
  -60.9990    1.4250  -21.9660 N   0  0  0  0  0  0  0  0  0  0  0  0
  -61.2900    0.3680  -23.9820 N   0  0  0  0  0  0  0  0  0  0  0  0
  2  1  1  6
  3  2  1  0
  4  3  2  0
  5  2  1  0
  6  5  1  0
  7  6  2  0
  8  6  1  0
  9  7  1  0
 10  8  2  0
 11 10  1  0
 11  9  2  0
 12 11  1  0
 13  3  1  0
 14 13  1  6
 15 14  1  0
 16 15  2  0
 17 14  1  0
 18 17  1  0
 19 17  1  0
 20 15  1  0
 21 20  1  0
 22 21  1  0
 23 22  2  0
 21 24  1  6
 25 24  1  0
 26 25  1  0
 27 26  1  0
 28 27  1  0
 29 28  1  0
 30 28  2  0
 32 31  1  0
 32 33  1  6
 34 33  2  0
 35 32  1  0
 36 35  1  0
 37 36  1  0
 37 31  1  0
 38 33  1  0
 39 38  1  0
 40 39  1  0
 41 40  2  0
 39 42  1  1
 43 42  1  0
 44 43  1  0
 45 44  2  0
 46 44  1  0
 48 47  1  1
 49 48  1  0
 50 49  2  0
 51 48  1  0
 52 51  1  0
 51 53  1  1
 54 49  1  0
 55 54  1  0
 56 55  1  0
 57 56  2  0
 55 58  1  1
 59 58  1  0
 60 59  1  0
 61 59  1  0
 62 56  1  0
 63 62  1  6
 64 63  1  0
 65 64  2  0
 66 63  1  0
 67 66  1  0
 66 68  1  1
 69 67  1  0
 70 64  1  0
 71 70  1  0
 72 71  1  0
 73 72  2  0
 71 74  1  6
 75 74  1  0
 76 75  1  0
 77 75  2  0
 78 76  2  0
 79 78  1  0
 79 77  1  0
 80 72  1  0
 81 80  1  0
 82 81  1  0
 83 82  2  0
 81 84  1  1
 85 84  1  0
 86 85  1  0
 87 86  1  0
 88 87  1  0
 89 88  1  0
 90 88  2  0
 91 82  1  0
 92 91  1  0
 93 92  1  0
 94 93  2  0
 92 95  1  1
 96 95  1  0
 97 96  1  0
 98 97  1  0
 99 98  1  0
100 93  1  0
101100  1  0
102101  1  0
103102  2  0
101104  1  1
105102  1  0
106105  1  1
107106  1  0
108107  2  0
109106  1  0
110109  1  0
111109  1  0
112107  1  0
113112  1  0
113114  1  6
115114  2  0
116113  1  0
117116  1  0
118112  1  0
118117  1  0
120119  1  6
121120  1  0
122121  2  0
123120  1  0
124123  1  0
125123  1  0
127126  1  6
128127  1  0
129128  2  0
130127  1  0
131130  1  0
132131  1  0
133132  1  0
134133  1  0
135134  1  0
136134  2  0
M  END
$$$$
