
     RDKit          3D

 71 68  0  0  0  0  0  0  0  0999 V2000
  137.4440  182.1180  178.6440 N   0  0  0  0  0  0  0  0  0  0  0  0
  136.1350  182.4180  179.2120 C   0  0  2  0  0  0  0  0  0  0  0  0
  135.8290  183.8790  178.9390 C   0  0  0  0  0  0  0  0  0  0  0  0
  136.5410  184.7600  179.4270 O   0  0  0  0  0  0  0  0  0  0  0  0
  136.0960  182.1280  180.7090 C   0  0  0  0  0  0  0  0  0  0  0  0
  134.7060  181.8050  181.1910 C   0  0  0  0  0  0  0  0  0  0  0  0
  133.7480  182.4910  180.8450 O   0  0  0  0  0  0  0  0  0  0  0  0
  134.5790  180.7560  181.9890 N   0  0  0  0  0  0  0  0  0  0  0  0
  133.5080  185.6790  180.0460 N   0  0  0  0  0  0  0  0  0  0  0  0
  133.0040  186.3860  181.2130 C   0  0  2  0  0  0  0  0  0  0  0  0
  134.0920  186.6550  182.2410 C   0  0  0  0  0  0  0  0  0  0  0  0
  133.8010  187.2020  183.3080 O   0  0  0  0  0  0  0  0  0  0  0  0
  131.8640  185.6010  181.8590 C   0  0  2  0  0  0  0  0  0  0  0  0
  132.4050  184.5330  182.6440 O   0  0  0  0  0  0  0  0  0  0  0  0
  130.9450  185.0260  180.7940 C   0  0  0  0  0  0  0  0  0  0  0  0
  135.3320  186.2870  181.9440 N   0  0  0  0  0  0  0  0  0  0  0  0
  136.4750  186.5010  182.8280 C   0  0  2  0  0  0  0  0  0  0  0  0
  137.3920  187.4920  182.1210 C   0  0  0  0  0  0  0  0  0  0  0  0
  138.1400  187.1120  181.2170 O   0  0  0  0  0  0  0  0  0  0  0  0
  137.1840  185.1830  183.1260 C   0  0  0  0  0  0  0  0  0  0  0  0
  138.3880  185.3530  184.0240 C   0  0  0  0  0  0  0  0  0  0  0  0
  138.6040  186.4140  184.6020 O   0  0  0  0  0  0  0  0  0  0  0  0
  139.1820  184.2980  184.1490 N   0  0  0  0  0  0  0  0  0  0  0  0
  137.3410  188.7600  182.5310 N   0  0  0  0  0  0  0  0  0  0  0  0
  138.0720  189.7970  181.8130 C   0  0  2  0  0  0  0  0  0  0  0  0
  139.5790  189.6880  181.9810 C   0  0  0  0  0  0  0  0  0  0  0  0
  140.3120  190.4060  181.2960 O   0  0  0  0  0  0  0  0  0  0  0  0
  137.5940  191.1820  182.2490 C   0  0  0  0  0  0  0  0  0  0  0  0
  137.7650  191.4210  183.7280 C   0  0  0  0  0  0  0  0  0  0  0  0
  138.8780  191.4100  184.2470 O   0  0  0  0  0  0  0  0  0  0  0  0
  136.6580  191.6440  184.4200 N   0  0  0  0  0  0  0  0  0  0  0  0
  139.3720  192.9480  177.6070 N   0  0  0  0  0  0  0  0  0  0  0  0
  138.1480  193.6500  177.9530 C   0  0  2  0  0  0  0  0  0  0  0  0
  138.3040  194.3870  179.2810 C   0  0  0  0  0  0  0  0  0  0  0  0
  139.0710  193.9860  180.1560 O   0  0  0  0  0  0  0  0  0  0  0  0
  136.9880  192.6570  178.0130 C   0  0  0  0  0  0  0  0  0  0  0  0
  135.6110  193.2600  178.1610 C   0  0  0  0  0  0  0  0  0  0  0  0
  134.5550  192.1760  178.0800 C   0  0  0  0  0  0  0  0  0  0  0  0
  134.6960  191.2020  179.1530 N   0  0  0  0  0  0  0  0  0  0  0  0
  134.1800  191.3470  180.3640 C   0  0  0  0  0  0  0  0  0  0  0  0
  133.4640  192.4100  180.6860 N   0  0  0  0  0  0  0  0  0  0  0  0
  134.3860  190.4010  181.2750 N   0  0  0  0  0  0  0  0  0  0  0  0
  137.5620  195.4830  179.4190 N   0  0  0  0  0  0  0  0  0  0  0  0
  137.5690  196.2960  180.6280 C   0  0  2  0  0  0  0  0  0  0  0  0
  136.3300  195.9810  181.4510 C   0  0  0  0  0  0  0  0  0  0  0  0
  135.2130  195.9890  180.9260 O   0  0  0  0  0  0  0  0  0  0  0  0
  137.6140  197.7860  180.2900 C   0  0  0  0  0  0  0  0  0  0  0  0
  138.9570  198.2180  179.7450 C   0  0  0  0  0  0  0  0  0  0  0  0
  139.8220  197.3430  179.5400 O   0  0  0  0  0  0  0  0  0  0  0  0
  139.1510  199.4310  179.5210 O   0  0  0  0  0  0  0  0  0  0  0  0
  136.5290  195.7170  182.7370 N   0  0  0  0  0  0  0  0  0  0  0  0
  135.4550  195.2290  183.5780 C   0  0  0  0  0  0  0  0  0  0  0  0
  134.5510  196.2880  184.1740 C   0  0  0  0  0  0  0  0  0  0  0  0
  134.6470  196.5860  185.3670 O   0  0  0  0  0  0  0  0  0  0  0  0
  133.6680  196.8610  183.3620 N   0  0  0  0  0  0  0  0  0  0  0  0
  132.7030  197.8130  183.8850 C   0  0  0  0  0  0  0  0  0  0  0  0
  131.7220  197.1430  184.8330 C   0  0  0  0  0  0  0  0  0  0  0  0
  131.3180  195.9960  184.6360 O   0  0  0  0  0  0  0  0  0  0  0  0
  131.3400  197.8720  185.8820 N   0  0  0  0  0  0  0  0  0  0  0  0
  130.4410  197.3420  186.9030 C   0  0  2  0  0  0  0  0  0  0  0  0
  129.1010  198.0650  186.9280 C   0  0  0  0  0  0  0  0  0  0  0  0
  128.0560  197.4150  186.8240 O   0  0  0  0  0  0  0  0  0  0  0  0
  131.1080  197.4170  188.2840 C   0  0  0  0  0  0  0  0  0  0  0  0
  132.4920  196.8030  188.3000 C   0  0  0  0  0  0  0  0  0  0  0  0
  132.8010  196.0010  187.3960 O   0  0  0  0  0  0  0  0  0  0  0  0
  133.2710  197.1220  189.2220 O   0  0  0  0  0  0  0  0  0  0  0  0
  129.0970  199.3890  187.0640 N   0  0  0  0  0  0  0  0  0  0  0  0
  127.8700  200.1500  187.2610 C   0  0  2  0  0  0  0  0  0  0  0  0
  127.2800  200.6930  185.9670 C   0  0  0  0  0  0  0  0  0  0  0  0
  126.2840  201.4220  186.0170 O   0  0  0  0  0  0  0  0  0  0  0  0
  128.1180  201.3070  188.2360 C   0  0  0  0  0  0  0  0  0  0  0  0
  2  1  1  1
  3  2  1  0
  4  3  2  0
  5  2  1  0
  6  5  1  0
  7  6  2  0
  8  6  1  0
 10  9  1  6
 11 10  1  0
 12 11  2  0
 13 10  1  0
 14 13  1  0
 13 15  1  6
 16 11  1  0
 17 16  1  0
 18 17  1  0
 19 18  2  0
 17 20  1  6
 21 20  1  0
 22 21  2  0
 23 21  1  0
 24 18  1  0
 25 24  1  0
 26 25  1  0
 27 26  2  0
 25 28  1  1
 29 28  1  0
 30 29  2  0
 31 29  1  0
 33 32  1  1
 34 33  1  0
 35 34  2  0
 36 33  1  0
 37 36  1  0
 38 37  1  0
 39 38  1  0
 40 39  1  0
 41 40  1  0
 42 40  2  0
 43 34  1  0
 44 43  1  0
 45 44  1  0
 46 45  2  0
 44 47  1  6
 48 47  1  0
 49 48  2  0
 50 48  1  0
 51 45  1  0
 52 51  1  0
 53 52  1  0
 54 53  2  0
 55 53  1  0
 56 55  1  0
 57 56  1  0
 58 57  2  0
 59 57  1  0
 60 59  1  0
 61 60  1  0
 62 61  2  0
 60 63  1  1
 64 63  1  0
 65 64  2  0
 66 64  1  0
 67 61  1  0
 68 67  1  0
 69 68  1  0
 70 69  2  0
 68 71  1  1
M  END
$$$$
