
     RDKit          3D

130129  0  0  0  0  0  0  0  0999 V2000
  200.4130  280.0940  276.1260 N   0  0  0  0  0  0  0  0  0  0  0  0
  199.0560  279.7220  276.4920 C   0  0  2  0  0  0  0  0  0  0  0  0
  198.1780  279.5400  275.2460 C   0  0  0  0  0  0  0  0  0  0  0  0
  198.2560  280.3190  274.2970 O   0  0  0  0  0  0  0  0  0  0  0  0
  198.4870  280.7600  277.4870 C   0  0  0  0  0  0  0  0  0  0  0  0
  198.2880  282.2300  277.0400 C   0  0  0  0  0  0  0  0  0  0  0  0
  196.9470  282.4660  276.3760 C   0  0  0  0  0  0  0  0  0  0  0  0
  195.9800  281.7900  276.6950 O   0  0  0  0  0  0  0  0  0  0  0  0
  196.8740  283.4410  275.4900 N   0  0  0  0  0  0  0  0  0  0  0  0
  197.3500  278.4980  275.2560 N   0  0  0  0  0  0  0  0  0  0  0  0
  196.5230  278.1880  274.1010 C   0  0  2  0  0  0  0  0  0  0  0  0
  195.3330  279.1360  273.9970 C   0  0  0  0  0  0  0  0  0  0  0  0
  194.6490  279.4480  274.9760 O   0  0  0  0  0  0  0  0  0  0  0  0
  196.0330  276.7410  274.1600 C   0  0  0  0  0  0  0  0  0  0  0  0
  197.2740  275.5780  273.6130 S   0  0  0  0  0  0  0  0  0  0  0  0
  195.1020  279.6050  272.7760 N   0  0  0  0  0  0  0  0  0  0  0  0
  193.8380  280.2350  272.4320 C   0  0  2  0  0  0  0  0  0  0  0  0
  193.2140  279.3380  271.3770 C   0  0  0  0  0  0  0  0  0  0  0  0
  193.7470  279.1930  270.2720 O   0  0  0  0  0  0  0  0  0  0  0  0
  194.0090  281.6750  271.9190 C   0  0  0  0  0  0  0  0  0  0  0  0
  192.6610  282.2610  271.5770 C   0  0  0  0  0  0  0  0  0  0  0  0
  194.7140  282.5330  272.9430 C   0  0  0  0  0  0  0  0  0  0  0  0
  192.1010  278.7120  271.7400 N   0  0  0  0  0  0  0  0  0  0  0  0
  191.3640  277.7460  270.9440 C   0  0  2  0  0  0  0  0  0  0  0  0
  190.7220  278.4310  269.7510 C   0  0  0  0  0  0  0  0  0  0  0  0
  189.7070  279.1210  269.8800 O   0  0  0  0  0  0  0  0  0  0  0  0
  190.3210  277.0640  271.8160 C   0  0  0  0  0  0  0  0  0  0  0  0
  190.9310  276.2970  272.9540 C   0  0  0  0  0  0  0  0  0  0  0  0
  192.1250  275.9990  272.9450 O   0  0  0  0  0  0  0  0  0  0  0  0
  190.1230  275.9860  273.9560 N   0  0  0  0  0  0  0  0  0  0  0  0
  191.3210  278.2210  268.5850 N   0  0  0  0  0  0  0  0  0  0  0  0
  191.1470  279.0940  267.4390 C   0  0  2  0  0  0  0  0  0  0  0  0
  190.6980  278.3140  266.2070 C   0  0  0  0  0  0  0  0  0  0  0  0
  190.3340  278.9210  265.1930 O   0  0  0  0  0  0  0  0  0  0  0  0
  192.4750  279.8340  267.2100 C   0  0  0  0  0  0  0  0  0  0  0  0
  192.8270  280.9290  266.2060 C   0  0  0  0  0  0  0  0  0  0  0  0
  191.9900  282.1690  266.4160 C   0  0  0  0  0  0  0  0  0  0  0  0
  194.3100  281.2490  266.3110 C   0  0  0  0  0  0  0  0  0  0  0  0
  190.6490  276.9880  266.2960 N   0  0  0  0  0  0  0  0  0  0  0  0
  190.3700  276.1550  265.1360 C   0  0  2  0  0  0  0  0  0  0  0  0
  188.8710  276.1060  264.8500 C   0  0  0  0  0  0  0  0  0  0  0  0
  188.0530  275.7900  265.7180 O   0  0  0  0  0  0  0  0  0  0  0  0
  190.9360  274.7490  265.3610 C   0  0  2  0  0  0  0  0  0  0  0  0
  192.3470  274.8460  265.5840 O   0  0  0  0  0  0  0  0  0  0  0  0
  190.7150  273.8510  264.1430 C   0  0  0  0  0  0  0  0  0  0  0  0
  188.5220  276.4360  263.6100 N   0  0  0  0  0  0  0  0  0  0  0  0
  187.1560  276.4780  263.1240 C   0  0  2  0  0  0  0  0  0  0  0  0
  186.7980  275.0390  262.7470 C   0  0  0  0  0  0  0  0  0  0  0  0
  187.6940  274.2060  262.5600 O   0  0  0  0  0  0  0  0  0  0  0  0
  187.1070  277.4770  261.9320 C   0  0  2  0  0  0  0  0  0  0  0  0
  187.5500  278.7390  262.4170 O   0  0  0  0  0  0  0  0  0  0  0  0
  185.6970  277.7820  261.3670 C   0  0  0  0  0  0  0  0  0  0  0  0
  185.4940  274.7210  262.7380 N   0  0  0  0  0  0  0  0  0  0  0  0
  184.9840  273.5790  261.9910 C   0  0  2  0  0  0  0  0  0  0  0  0
  185.3710  273.7070  260.5230 C   0  0  0  0  0  0  0  0  0  0  0  0
  185.2530  274.7820  259.9280 O   0  0  0  0  0  0  0  0  0  0  0  0
  183.4610  273.4990  262.1070 C   0  0  0  0  0  0  0  0  0  0  0  0
  182.8560  273.4600  263.5170 C   0  0  0  0  0  0  0  0  0  0  0  0
  182.9970  272.1140  264.2690 C   0  0  0  0  0  0  0  0  0  0  0  0
  184.2980  271.8670  264.8920 N   0  0  0  0  0  0  0  0  0  0  0  0
  184.7080  272.3990  266.0430 C   0  0  0  0  0  0  0  0  0  0  0  0
  183.9210  273.2100  266.7420 N   0  0  0  0  0  0  0  0  0  0  0  0
  185.9130  272.1050  266.5090 N   0  0  0  0  0  0  0  0  0  0  0  0
  184.3670  283.9780  259.0490 N   0  0  0  0  0  0  0  0  0  0  0  0
  184.4620  283.5270  260.4270 C   0  0  2  0  0  0  0  0  0  0  0  0
  185.8930  283.7320  260.8970 C   0  0  0  0  0  0  0  0  0  0  0  0
  186.6810  284.4330  260.2620 O   0  0  0  0  0  0  0  0  0  0  0  0
  184.0350  282.0610  260.6020 C   0  0  2  0  0  0  0  0  0  0  0  0
  184.7540  281.2200  259.6960 O   0  0  0  0  0  0  0  0  0  0  0  0
  182.5320  281.8760  260.4050 C   0  0  0  0  0  0  0  0  0  0  0  0
  186.2160  283.1610  262.0510 N   0  0  0  0  0  0  0  0  0  0  0  0
  187.6020  282.8250  262.2950 C   0  0  2  0  0  0  0  0  0  0  0  0
  187.9610  281.6920  261.3490 C   0  0  0  0  0  0  0  0  0  0  0  0
  187.1710  280.7780  261.1100 O   0  0  0  0  0  0  0  0  0  0  0  0
  187.8400  282.4760  263.7710 C   0  0  0  0  0  0  0  0  0  0  0  0
  186.9600  281.3800  264.3710 C   0  0  0  0  0  0  0  0  0  0  0  0
  187.5680  280.7960  265.6390 C   0  0  0  0  0  0  0  0  0  0  0  0
  187.0750  279.3770  265.9040 C   0  0  0  0  0  0  0  0  0  0  0  0
  187.6070  278.8170  267.1770 N   0  0  0  0  0  0  0  0  0  0  0  0
  194.0310  289.5060  265.0790 N   0  0  0  0  0  0  0  0  0  0  0  0
  192.6750  289.0320  264.8580 C   0  0  2  0  0  0  0  0  0  0  0  0
  191.7690  289.3220  266.0500 C   0  0  0  0  0  0  0  0  0  0  0  0
  192.0950  290.1040  266.9480 O   0  0  0  0  0  0  0  0  0  0  0  0
  192.6630  287.5370  264.5560 C   0  0  0  0  0  0  0  0  0  0  0  0
  192.8170  287.2180  263.0850 C   0  0  0  0  0  0  0  0  0  0  0  0
  192.1720  285.8840  262.7570 C   0  0  0  0  0  0  0  0  0  0  0  0
  190.8650  285.7460  263.3940 N   0  0  0  0  0  0  0  0  0  0  0  0
  189.7170  286.1320  262.8450 C   0  0  0  0  0  0  0  0  0  0  0  0
  188.5760  285.9690  263.5000 N   0  0  0  0  0  0  0  0  0  0  0  0
  189.7060  286.6840  261.6400 N   0  0  0  0  0  0  0  0  0  0  0  0
  190.6010  288.6880  266.0260 N   0  0  0  0  0  0  0  0  0  0  0  0
  189.5510  288.8770  267.0130 C   0  0  2  0  0  0  0  0  0  0  0  0
  189.3120  287.6130  267.8300 C   0  0  0  0  0  0  0  0  0  0  0  0
  189.3570  286.4900  267.3240 O   0  0  0  0  0  0  0  0  0  0  0  0
  188.2430  289.2800  266.3330 C   0  0  0  0  0  0  0  0  0  0  0  0
  187.2150  289.4840  267.2850 O   0  0  0  0  0  0  0  0  0  0  0  0
  189.0560  287.8220  269.1170 N   0  0  0  0  0  0  0  0  0  0  0  0
  188.5300  286.8110  270.0220 C   0  0  2  0  0  0  0  0  0  0  0  0
  187.0110  286.8810  270.1010 C   0  0  0  0  0  0  0  0  0  0  0  0
  186.3670  285.9430  270.5830 O   0  0  0  0  0  0  0  0  0  0  0  0
  189.1720  287.0250  271.4030 C   0  0  0  0  0  0  0  0  0  0  0  0
  188.9100  286.0040  272.4920 C   0  0  0  0  0  0  0  0  0  0  0  0
  189.7520  284.8950  272.6380 C   0  0  0  0  0  0  0  0  0  0  0  0
  187.8820  286.1930  273.4270 C   0  0  0  0  0  0  0  0  0  0  0  0
  189.5460  283.9750  273.6580 C   0  0  0  0  0  0  0  0  0  0  0  0
  187.6650  285.2690  274.4400 C   0  0  0  0  0  0  0  0  0  0  0  0
  188.4940  284.1670  274.5470 C   0  0  0  0  0  0  0  0  0  0  0  0
  188.2680  283.2690  275.5610 O   0  0  0  0  0  0  0  0  0  0  0  0
  186.4320  287.9580  269.5790 N   0  0  0  0  0  0  0  0  0  0  0  0
  185.0690  288.3700  269.8790 C   0  0  2  0  0  0  0  0  0  0  0  0
  184.0920  288.0450  268.7570 C   0  0  0  0  0  0  0  0  0  0  0  0
  183.1740  287.2390  268.9350 O   0  0  0  0  0  0  0  0  0  0  0  0
  185.0680  289.8800  270.1230 C   0  0  0  0  0  0  0  0  0  0  0  0
  185.2960  290.5960  271.4470 C   0  0  0  0  0  0  0  0  0  0  0  0
  186.4390  290.0540  272.2850 C   0  0  0  0  0  0  0  0  0  0  0  0
  185.6360  292.0000  271.0170 C   0  0  0  0  0  0  0  0  0  0  0  0
  184.2950  288.6540  267.5860 N   0  0  0  0  0  0  0  0  0  0  0  0
  183.2750  288.6760  266.5650 C   0  0  2  0  0  0  0  0  0  0  0  0
  183.8450  288.1370  265.2600 C   0  0  0  0  0  0  0  0  0  0  0  0
  184.6290  288.8400  264.6030 O   0  0  0  0  0  0  0  0  0  0  0  0
  182.7120  290.0790  266.3500 C   0  0  2  0  0  0  0  0  0  0  0  0
  182.2320  290.5920  267.5980 O   0  0  0  0  0  0  0  0  0  0  0  0
  181.5560  290.0440  265.3680 C   0  0  0  0  0  0  0  0  0  0  0  0
  183.4900  286.9140  264.8690 N   0  0  0  0  0  0  0  0  0  0  0  0
  184.0610  286.3410  263.6500 C   0  0  2  0  0  0  0  0  0  0  0  0
  183.3560  286.7830  262.3770 C   0  0  0  0  0  0  0  0  0  0  0  0
  183.9720  286.8010  261.3060 O   0  0  0  0  0  0  0  0  0  0  0  0
  183.9010  284.8380  263.8870 C   0  0  0  0  0  0  0  0  0  0  0  0
  182.8000  284.6890  264.7870 C   0  0  0  0  0  0  0  0  0  0  0  0
  182.7420  285.9030  265.6360 C   0  0  0  0  0  0  0  0  0  0  0  0
  2  1  1  6
  3  2  1  0
  4  3  2  0
  5  2  1  0
  6  5  1  0
  7  6  1  0
  8  7  2  0
  9  7  1  0
 10  3  1  0
 11 10  1  0
 12 11  1  0
 13 12  2  0
 11 14  1  1
 15 14  1  0
 16 12  1  0
 17 16  1  6
 18 17  1  0
 19 18  2  0
 20 17  1  0
 21 20  1  0
 22 20  1  0
 23 18  1  0
 24 23  1  0
 25 24  1  0
 26 25  2  0
 24 27  1  1
 28 27  1  0
 29 28  2  0
 30 28  1  0
 31 25  1  0
 32 31  1  0
 33 32  1  0
 34 33  2  0
 32 35  1  6
 36 35  1  0
 37 36  1  0
 38 36  1  0
 39 33  1  0
 40 39  1  1
 41 40  1  0
 42 41  2  0
 43 40  1  0
 44 43  1  0
 43 45  1  6
 46 41  1  0
 47 46  1  6
 48 47  1  0
 49 48  2  0
 50 47  1  0
 51 50  1  0
 50 52  1  1
 53 48  1  0
 54 53  1  0
 55 54  1  0
 56 55  2  0
 54 57  1  6
 58 57  1  0
 59 58  1  0
 60 59  1  0
 61 60  1  0
 62 61  1  0
 63 61  2  0
 65 64  1  6
 66 65  1  0
 67 66  2  0
 68 65  1  0
 69 68  1  0
 68 70  1  6
 71 66  1  0
 72 71  1  0
 73 72  1  0
 74 73  2  0
 72 75  1  1
 76 75  1  0
 77 76  1  0
 78 77  1  0
 79 78  1  0
 81 80  1  1
 82 81  1  0
 83 82  2  0
 84 81  1  0
 85 84  1  0
 86 85  1  0
 87 86  1  0
 88 87  1  0
 89 88  1  0
 90 88  2  0
 91 82  1  0
 92 91  1  0
 93 92  1  0
 94 93  2  0
 92 95  1  6
 96 95  1  0
 97 93  1  0
 98 97  1  0
 99 98  1  0
100 99  2  0
 98101  1  1
102101  1  0
103102  2  0
104102  1  0
105103  1  0
106104  2  0
107106  1  0
107105  2  0
108107  1  0
109 99  1  0
110109  1  0
111110  1  0
112111  2  0
110113  1  6
114113  1  0
115114  1  0
116114  1  0
117111  1  0
118117  1  1
119118  1  0
120119  2  0
121118  1  0
122121  1  0
121123  1  6
124119  1  0
125124  1  0
125126  1  6
127126  2  0
128125  1  0
129128  1  0
130129  1  0
130124  1  0
M  END
$$$$
