
     RDKit          3D

141140  0  0  0  0  0  0  0  0999 V2000
   -2.7940   25.2050    8.6240 N   0  0  0  0  0  0  0  0  0  0  0  0
   -3.7280   24.2580    8.0250 C   0  0  2  0  0  0  0  0  0  0  0  0
   -3.8150   22.9510    8.8000 C   0  0  0  0  0  0  0  0  0  0  0  0
   -4.9010   22.5240    9.2060 O   0  0  0  0  0  0  0  0  0  0  0  0
   -3.2940   23.9580    6.5900 C   0  0  0  0  0  0  0  0  0  0  0  0
   -4.1060   24.6110    5.5160 C   0  0  0  0  0  0  0  0  0  0  0  0
   -3.4660   24.3350    4.1600 C   0  0  0  0  0  0  0  0  0  0  0  0
   -2.5550   23.1220    4.2250 C   0  0  0  0  0  0  0  0  0  0  0  0
   -1.8230   22.8970    2.9460 N   0  0  0  0  0  0  0  0  0  0  0  0
   -6.7610   22.5320   11.4260 N   0  0  0  0  0  0  0  0  0  0  0  0
   -7.9230   21.9310   10.7910 C   0  0  2  0  0  0  0  0  0  0  0  0
   -7.8140   20.4260   10.5600 C   0  0  0  0  0  0  0  0  0  0  0  0
   -8.7780   19.8270   10.0650 O   0  0  0  0  0  0  0  0  0  0  0  0
   -8.2020   22.6290    9.4500 C   0  0  0  0  0  0  0  0  0  0  0  0
   -8.4230   24.1300    9.5380 C   0  0  0  0  0  0  0  0  0  0  0  0
   -8.8720   24.7270   10.7090 C   0  0  0  0  0  0  0  0  0  0  0  0
   -8.1950   24.9470    8.4380 C   0  0  0  0  0  0  0  0  0  0  0  0
   -9.0820   26.0950   10.7870 C   0  0  0  0  0  0  0  0  0  0  0  0
   -8.4000   26.3180    8.5040 C   0  0  0  0  0  0  0  0  0  0  0  0
   -8.8440   26.8880    9.6800 C   0  0  0  0  0  0  0  0  0  0  0  0
   -9.0500   28.2530    9.7480 O   0  0  0  0  0  0  0  0  0  0  0  0
   -7.8370   18.6370    5.0690 N   0  0  0  0  0  0  0  0  0  0  0  0
   -8.9420   19.5760    5.2080 C   0  0  2  0  0  0  0  0  0  0  0  0
   -8.4220   21.0000    5.0440 C   0  0  0  0  0  0  0  0  0  0  0  0
   -7.4900   21.4140    5.7400 O   0  0  0  0  0  0  0  0  0  0  0  0
   -9.6300   19.4200    6.5630 C   0  0  0  0  0  0  0  0  0  0  0  0
  -10.7800   20.3910    6.7820 C   0  0  0  0  0  0  0  0  0  0  0  0
  -11.6000   20.0030    7.9980 C   0  0  0  0  0  0  0  0  0  0  0  0
  -11.9910   18.5980    7.9380 N   0  0  0  0  0  0  0  0  0  0  0  0
  -13.0050   18.1370    7.2090 C   0  0  0  0  0  0  0  0  0  0  0  0
  -13.7430   18.9730    6.4880 N   0  0  0  0  0  0  0  0  0  0  0  0
  -13.2880   16.8410    7.2040 N   0  0  0  0  0  0  0  0  0  0  0  0
   -9.0380   21.7460    4.1300 N   0  0  0  0  0  0  0  0  0  0  0  0
   -8.6370   23.1040    3.7740 C   0  0  2  0  0  0  0  0  0  0  0  0
   -9.5270   24.1730    4.3940 C   0  0  0  0  0  0  0  0  0  0  0  0
   -9.0210   25.2090    4.8400 O   0  0  0  0  0  0  0  0  0  0  0  0
   -8.6400   23.2690    2.2490 C   0  0  0  0  0  0  0  0  0  0  0  0
   -8.3540   24.6680    1.7080 C   0  0  0  0  0  0  0  0  0  0  0  0
   -6.9340   25.1250    2.0540 C   0  0  0  0  0  0  0  0  0  0  0  0
   -8.5890   24.6920    0.2090 C   0  0  0  0  0  0  0  0  0  0  0  0
  -10.8380   23.9490    4.4280 N   0  0  0  0  0  0  0  0  0  0  0  0
  -11.7850   24.8890    5.0050 C   0  0  2  0  0  0  0  0  0  0  0  0
  -12.3630   24.3180    6.2880 C   0  0  0  0  0  0  0  0  0  0  0  0
  -12.7390   23.1430    6.3380 O   0  0  0  0  0  0  0  0  0  0  0  0
  -12.9230   25.1960    4.0330 C   0  0  0  0  0  0  0  0  0  0  0  0
  -12.4640   25.7010    2.7050 C   0  0  0  0  0  0  0  0  0  0  0  0
  -12.2790   27.0560    2.4920 C   0  0  0  0  0  0  0  0  0  0  0  0
  -12.2200   24.8240    1.6640 C   0  0  0  0  0  0  0  0  0  0  0  0
  -11.8630   27.5250    1.2680 C   0  0  0  0  0  0  0  0  0  0  0  0
  -11.8000   25.2910    0.4360 C   0  0  0  0  0  0  0  0  0  0  0  0
  -11.6230   26.6460    0.2410 C   0  0  0  0  0  0  0  0  0  0  0  0
  -12.4390   25.1560    7.3190 N   0  0  0  0  0  0  0  0  0  0  0  0
  -13.0990   24.7830    8.5610 C   0  0  2  0  0  0  0  0  0  0  0  0
  -13.3650   26.0430    9.3620 C   0  0  0  0  0  0  0  0  0  0  0  0
  -12.4970   26.9120    9.4660 O   0  0  0  0  0  0  0  0  0  0  0  0
  -12.2610   23.8020    9.3810 C   0  0  0  0  0  0  0  0  0  0  0  0
  -13.0820   22.9970   10.3770 C   0  0  0  0  0  0  0  0  0  0  0  0
  -12.2080   22.0610   11.1870 C   0  0  0  0  0  0  0  0  0  0  0  0
  -12.9980   21.0430   11.8680 N   0  0  0  0  0  0  0  0  0  0  0  0
  -13.4210   21.1380   13.1260 C   0  0  0  0  0  0  0  0  0  0  0  0
  -13.1330   22.2080   13.8630 N   0  0  0  0  0  0  0  0  0  0  0  0
  -14.1340   20.1550   13.6520 N   0  0  0  0  0  0  0  0  0  0  0  0
  -14.5640   26.1330    9.9330 N   0  0  0  0  0  0  0  0  0  0  0  0
  -14.9350   27.3560   10.6290 C   0  0  2  0  0  0  0  0  0  0  0  0
  -14.0650   27.5980   11.8580 C   0  0  0  0  0  0  0  0  0  0  0  0
  -13.7700   28.7550   12.1820 O   0  0  0  0  0  0  0  0  0  0  0  0
  -16.4150   27.3110   11.0090 C   0  0  0  0  0  0  0  0  0  0  0  0
  -18.5330   23.3440    2.3690 N   0  0  0  0  0  0  0  0  0  0  0  0
  -18.2130   24.4740    3.2280 C   0  0  2  0  0  0  0  0  0  0  0  0
  -18.7970   25.7530    2.6410 C   0  0  0  0  0  0  0  0  0  0  0  0
  -18.5750   26.0720    1.4680 O   0  0  0  0  0  0  0  0  0  0  0  0
  -16.7010   24.5970    3.3990 C   0  0  0  0  0  0  0  0  0  0  0  0
  -16.3010   25.6630    4.3770 C   0  0  0  0  0  0  0  0  0  0  0  0
  -16.1550   25.3700    5.7270 C   0  0  0  0  0  0  0  0  0  0  0  0
  -16.0700   26.9730    3.9550 C   0  0  0  0  0  0  0  0  0  0  0  0
  -15.7890   26.3530    6.6360 C   0  0  0  0  0  0  0  0  0  0  0  0
  -15.7070   27.9620    4.8540 C   0  0  0  0  0  0  0  0  0  0  0  0
  -15.5650   27.6450    6.1930 C   0  0  0  0  0  0  0  0  0  0  0  0
  -15.2050   28.6220    7.0910 O   0  0  0  0  0  0  0  0  0  0  0  0
  -19.5500   26.4750    3.4550 N   0  0  0  0  0  0  0  0  0  0  0  0
  -20.2490   27.6770    3.0220 C   0  0  2  0  0  0  0  0  0  0  0  0
  -19.4020   28.8990    3.3710 C   0  0  0  0  0  0  0  0  0  0  0  0
  -19.3230   29.3020    4.5370 O   0  0  0  0  0  0  0  0  0  0  0  0
  -21.6260   27.7410    3.6760 C   0  0  0  0  0  0  0  0  0  0  0  0
  -22.4780   28.9240    3.2750 C   0  0  0  0  0  0  0  0  0  0  0  0
  -23.7780   28.9770    4.0520 C   0  0  0  0  0  0  0  0  0  0  0  0
  -24.5160   27.9910    4.1200 O   0  0  0  0  0  0  0  0  0  0  0  0
  -24.0590   30.1250    4.6580 N   0  0  0  0  0  0  0  0  0  0  0  0
  -18.7690   29.4860    2.3560 N   0  0  0  0  0  0  0  0  0  0  0  0
  -17.9400   30.6710    2.5240 C   0  0  2  0  0  0  0  0  0  0  0  0
  -18.7110   31.9670    2.3210 C   0  0  0  0  0  0  0  0  0  0  0  0
  -18.1590   33.0470    2.5590 O   0  0  0  0  0  0  0  0  0  0  0  0
  -16.7590   30.6210    1.5480 C   0  0  0  0  0  0  0  0  0  0  0  0
  -19.9610   31.8890    1.8750 N   0  0  0  0  0  0  0  0  0  0  0  0
  -20.7660   33.0750    1.6660 C   0  0  0  0  0  0  0  0  0  0  0  0
  -22.0090   33.0920    2.5310 C   0  0  0  0  0  0  0  0  0  0  0  0
  -22.1210   32.3160    3.4850 O   0  0  0  0  0  0  0  0  0  0  0  0
  -22.9400   33.9880    2.2200 N   0  0  0  0  0  0  0  0  0  0  0  0
  -24.2040   34.0630    2.9390 C   0  0  2  0  0  0  0  0  0  0  0  0
  -25.2800   33.1850    2.3170 C   0  0  0  0  0  0  0  0  0  0  0  0
  -26.3240   32.9710    2.9390 O   0  0  0  0  0  0  0  0  0  0  0  0
  -24.6980   35.5150    2.9920 C   0  0  0  0  0  0  0  0  0  0  0  0
  -23.7370   36.3680    3.5930 O   0  0  0  0  0  0  0  0  0  0  0  0
  -25.0440   32.6760    1.1100 N   0  0  0  0  0  0  0  0  0  0  0  0
  -25.9810   31.7840    0.4460 C   0  0  2  0  0  0  0  0  0  0  0  0
  -25.7340   30.3550    0.9150 C   0  0  0  0  0  0  0  0  0  0  0  0
  -24.6600   29.8030    0.6320 O   0  0  0  0  0  0  0  0  0  0  0  0
  -25.8210   31.8760   -1.0620 C   0  0  2  0  0  0  0  0  0  0  0  0
  -26.0240   33.2320   -1.4780 O   0  0  0  0  0  0  0  0  0  0  0  0
  -26.8270   30.9690   -1.7570 C   0  0  0  0  0  0  0  0  0  0  0  0
  -19.5300   28.4650   -6.4930 N   0  0  0  0  0  0  0  0  0  0  0  0
  -18.8380   29.6340   -5.9740 C   0  0  2  0  0  0  0  0  0  0  0  0
  -19.2730   29.9010   -4.5390 C   0  0  0  0  0  0  0  0  0  0  0  0
  -20.4680   30.0140   -4.2510 O   0  0  0  0  0  0  0  0  0  0  0  0
  -19.1080   30.8620   -6.8440 C   0  0  0  0  0  0  0  0  0  0  0  0
  -18.5080   32.1290   -6.2900 C   0  0  0  0  0  0  0  0  0  0  0  0
  -17.1770   32.4350   -6.5160 C   0  0  0  0  0  0  0  0  0  0  0  0
  -19.2670   32.9890   -5.5120 C   0  0  0  0  0  0  0  0  0  0  0  0
  -16.6210   33.5790   -5.9970 C   0  0  0  0  0  0  0  0  0  0  0  0
  -18.7160   34.1420   -4.9810 C   0  0  0  0  0  0  0  0  0  0  0  0
  -17.3910   34.4380   -5.2260 C   0  0  0  0  0  0  0  0  0  0  0  0
  -18.2920   30.0050   -3.6410 N   0  0  0  0  0  0  0  0  0  0  0  0
  -18.5110   30.2150   -2.2140 C   0  0  2  0  0  0  0  0  0  0  0  0
  -19.0870   28.9850   -1.5270 C   0  0  0  0  0  0  0  0  0  0  0  0
  -19.6580   29.0910   -0.4320 O   0  0  0  0  0  0  0  0  0  0  0  0
  -19.4140   31.4230   -1.9630 C   0  0  0  0  0  0  0  0  0  0  0  0
  -18.6290   32.6930   -1.7500 C   0  0  0  0  0  0  0  0  0  0  0  0
  -17.4220   32.7340   -1.9820 O   0  0  0  0  0  0  0  0  0  0  0  0
  -19.3070   33.7380   -1.2960 N   0  0  0  0  0  0  0  0  0  0  0  0
  -17.6300   25.2250   -1.1650 N   0  0  0  0  0  0  0  0  0  0  0  0
  -16.4280   24.4660   -1.4770 C   0  0  2  0  0  0  0  0  0  0  0  0
  -16.4220   23.1360   -0.7410 C   0  0  0  0  0  0  0  0  0  0  0  0
  -16.6900   23.0800    0.4660 O   0  0  0  0  0  0  0  0  0  0  0  0
  -15.1820   25.2900   -1.1390 C   0  0  0  0  0  0  0  0  0  0  0  0
  -15.2090   26.6140   -1.8510 C   0  0  0  0  0  0  0  0  0  0  0  0
  -15.0200   26.6790   -3.2250 C   0  0  0  0  0  0  0  0  0  0  0  0
  -15.4720   27.7950   -1.1680 C   0  0  0  0  0  0  0  0  0  0  0  0
  -15.0700   27.8760   -3.8960 C   0  0  0  0  0  0  0  0  0  0  0  0
  -15.5210   29.0070   -1.8350 C   0  0  0  0  0  0  0  0  0  0  0  0
  -15.3200   29.0340   -3.2010 C   0  0  0  0  0  0  0  0  0  0  0  0
  -15.3700   30.2190   -3.8850 O   0  0  0  0  0  0  0  0  0  0  0  0
  2  1  1  1
  3  2  1  0
  4  3  2  0
  5  2  1  0
  6  5  1  0
  7  6  1  0
  8  7  1  0
  9  8  1  0
 11 10  1  6
 12 11  1  0
 13 12  2  0
 14 11  1  0
 15 14  1  0
 16 15  2  0
 17 15  1  0
 18 16  1  0
 19 17  2  0
 20 19  1  0
 20 18  2  0
 21 20  1  0
 23 22  1  1
 24 23  1  0
 25 24  2  0
 26 23  1  0
 27 26  1  0
 28 27  1  0
 29 28  1  0
 30 29  1  0
 31 30  1  0
 32 30  2  0
 33 24  1  0
 34 33  1  0
 35 34  1  0
 36 35  2  0
 34 37  1  6
 38 37  1  0
 39 38  1  0
 40 38  1  0
 41 35  1  0
 42 41  1  0
 43 42  1  0
 44 43  2  0
 42 45  1  6
 46 45  1  0
 47 46  2  0
 48 46  1  0
 49 47  1  0
 50 48  2  0
 51 50  1  0
 51 49  2  0
 52 43  1  0
 53 52  1  0
 54 53  1  0
 55 54  2  0
 53 56  1  1
 57 56  1  0
 58 57  1  0
 59 58  1  0
 60 59  1  0
 61 60  1  0
 62 60  2  0
 63 54  1  0
 64 63  1  0
 65 64  1  0
 66 65  2  0
 64 67  1  1
 69 68  1  6
 70 69  1  0
 71 70  2  0
 72 69  1  0
 73 72  1  0
 74 73  2  0
 75 73  1  0
 76 74  1  0
 77 75  2  0
 78 76  2  0
 78 77  1  0
 79 78  1  0
 80 70  1  0
 81 80  1  0
 82 81  1  0
 83 82  2  0
 81 84  1  1
 85 84  1  0
 86 85  1  0
 87 86  2  0
 88 86  1  0
 89 82  1  0
 90 89  1  0
 91 90  1  0
 92 91  2  0
 90 93  1  6
 94 91  1  0
 95 94  1  0
 96 95  1  0
 97 96  2  0
 98 96  1  0
 99 98  1  0
100 99  1  0
101100  2  0
 99102  1  6
103102  1  0
104100  1  0
105104  1  1
106105  1  0
107106  2  0
108105  1  0
109108  1  0
108110  1  6
112111  1  6
113112  1  0
114113  2  0
115112  1  0
116115  1  0
117116  2  0
118116  1  0
119117  1  0
120118  2  0
121119  2  0
121120  1  0
122113  1  0
123122  1  0
124123  1  0
125124  2  0
123126  1  6
127126  1  0
128127  2  0
129127  1  0
131130  1  1
132131  1  0
133132  2  0
134131  1  0
135134  1  0
136135  2  0
137135  1  0
138136  1  0
139137  2  0
140139  1  0
140138  2  0
141140  1  0
M  END
$$$$
