
     RDKit          3D

150151  0  0  0  0  0  0  0  0999 V2000
  -22.3380  -30.9180   14.9090 N   0  0  0  0  0  0  0  0  0  0  0  0
  -23.7510  -31.1000   14.6170 C   0  0  2  0  0  0  0  0  0  0  0  0
  -24.5940  -30.2940   15.5980 C   0  0  0  0  0  0  0  0  0  0  0  0
  -24.0880  -29.7150   16.5630 O   0  0  0  0  0  0  0  0  0  0  0  0
  -24.1290  -32.5860   14.6650 C   0  0  0  0  0  0  0  0  0  0  0  0
  -23.3830  -33.4310   13.6460 C   0  0  0  0  0  0  0  0  0  0  0  0
  -23.7980  -34.8930   13.6970 C   0  0  0  0  0  0  0  0  0  0  0  0
  -23.6190  -35.4740   15.0240 N   0  0  0  0  0  0  0  0  0  0  0  0
  -23.4550  -36.7730   15.2530 C   0  0  0  0  0  0  0  0  0  0  0  0
  -23.4380  -37.6300   14.2400 N   0  0  0  0  0  0  0  0  0  0  0  0
  -23.3000  -37.2160   16.4930 N   0  0  0  0  0  0  0  0  0  0  0  0
  -27.1460  -31.2060   17.7860 N   0  0  0  0  0  0  0  0  0  0  0  0
  -27.2830  -31.7460   19.1330 C   0  0  2  0  0  0  0  0  0  0  0  0
  -25.9670  -31.7790   19.8990 C   0  0  0  0  0  0  0  0  0  0  0  0
  -25.9780  -32.0780   21.0980 O   0  0  0  0  0  0  0  0  0  0  0  0
  -27.8820  -33.1530   19.0760 C   0  0  0  0  0  0  0  0  0  0  0  0
  -27.1700  -34.0520   18.0830 C   0  0  0  0  0  0  0  0  0  0  0  0
  -26.2420  -33.5710   17.3990 O   0  0  0  0  0  0  0  0  0  0  0  0
  -27.5390  -35.2410   17.9880 O   0  0  0  0  0  0  0  0  0  0  0  0
  -14.2840  -36.2340   13.0320 N   0  0  0  0  0  0  0  0  0  0  0  0
  -14.2790  -36.0540   14.4760 C   0  0  2  0  0  0  0  0  0  0  0  0
  -13.7570  -37.3260   15.1260 C   0  0  0  0  0  0  0  0  0  0  0  0
  -14.0380  -38.4310   14.6540 O   0  0  0  0  0  0  0  0  0  0  0  0
  -15.6740  -35.7060   15.0110 C   0  0  0  0  0  0  0  0  0  0  0  0
  -16.6850  -36.8260   14.9330 C   0  0  0  0  0  0  0  0  0  0  0  0
  -17.3410  -37.1130   13.7440 C   0  0  0  0  0  0  0  0  0  0  0  0
  -16.9950  -37.5870   16.0530 C   0  0  0  0  0  0  0  0  0  0  0  0
  -18.2700  -38.1310   13.6700 C   0  0  0  0  0  0  0  0  0  0  0  0
  -17.9230  -38.6070   15.9880 C   0  0  0  0  0  0  0  0  0  0  0  0
  -18.5570  -38.8740   14.7940 C   0  0  0  0  0  0  0  0  0  0  0  0
  -19.4820  -39.8860   14.7230 O   0  0  0  0  0  0  0  0  0  0  0  0
  -13.4330  -40.4320   17.3480 N   0  0  0  0  0  0  0  0  0  0  0  0
  -14.4130  -41.3410   17.9260 C   0  0  2  0  0  0  0  0  0  0  0  0
  -13.8560  -42.1770   19.0690 C   0  0  0  0  0  0  0  0  0  0  0  0
  -14.6050  -42.5230   19.9900 O   0  0  0  0  0  0  0  0  0  0  0  0
  -14.9670  -42.2730   16.8400 C   0  0  0  0  0  0  0  0  0  0  0  0
  -16.0890  -43.2410   17.2200 C   0  0  0  0  0  0  0  0  0  0  0  0
  -17.2710  -42.4880   17.8090 C   0  0  0  0  0  0  0  0  0  0  0  0
  -16.5200  -44.0600   16.0120 C   0  0  0  0  0  0  0  0  0  0  0  0
  -12.5660  -42.5030   19.0390 N   0  0  0  0  0  0  0  0  0  0  0  0
  -11.9270  -43.3040   20.0730 C   0  0  2  0  0  0  0  0  0  0  0  0
  -10.7610  -42.5360   20.6800 C   0  0  0  0  0  0  0  0  0  0  0  0
  -10.0150  -41.8560   19.9680 O   0  0  0  0  0  0  0  0  0  0  0  0
  -11.4180  -44.6380   19.5140 C   0  0  0  0  0  0  0  0  0  0  0  0
  -12.4950  -45.5110   18.9390 C   0  0  0  0  0  0  0  0  0  0  0  0
  -13.1780  -46.4100   19.7420 C   0  0  0  0  0  0  0  0  0  0  0  0
  -12.8180  -45.4400   17.5950 C   0  0  0  0  0  0  0  0  0  0  0  0
  -14.1670  -47.2170   19.2140 C   0  0  0  0  0  0  0  0  0  0  0  0
  -13.8070  -46.2440   17.0610 C   0  0  0  0  0  0  0  0  0  0  0  0
  -14.4820  -47.1340   17.8720 C   0  0  0  0  0  0  0  0  0  0  0  0
   -9.7620  -50.0890   15.3560 N   0  0  0  0  0  0  0  0  0  0  0  0
  -10.5700  -49.1270   14.6230 C   0  0  2  0  0  0  0  0  0  0  0  0
   -9.8060  -47.8270   14.4220 C   0  0  0  0  0  0  0  0  0  0  0  0
   -9.0490  -47.3960   15.2990 O   0  0  0  0  0  0  0  0  0  0  0  0
  -11.8850  -48.8490   15.3570 C   0  0  0  0  0  0  0  0  0  0  0  0
  -12.6860  -50.0950   15.6540 C   0  0  0  0  0  0  0  0  0  0  0  0
  -13.3080  -50.8010   14.6350 C   0  0  0  0  0  0  0  0  0  0  0  0
  -12.8150  -50.5690   16.9540 C   0  0  0  0  0  0  0  0  0  0  0  0
  -14.0400  -51.9420   14.8990 C   0  0  0  0  0  0  0  0  0  0  0  0
  -13.5460  -51.7110   17.2280 C   0  0  0  0  0  0  0  0  0  0  0  0
  -14.1560  -52.3930   16.1960 C   0  0  0  0  0  0  0  0  0  0  0  0
  -14.8850  -53.5300   16.4610 O   0  0  0  0  0  0  0  0  0  0  0  0
  -10.0070  -47.2150   13.2630 N   0  0  0  0  0  0  0  0  0  0  0  0
   -9.4550  -45.8920   13.0110 C   0  0  2  0  0  0  0  0  0  0  0  0
  -10.1220  -44.8880   13.9440 C   0  0  0  0  0  0  0  0  0  0  0  0
  -11.3540  -44.8810   14.0600 O   0  0  0  0  0  0  0  0  0  0  0  0
   -9.6720  -45.5010   11.5500 C   0  0  0  0  0  0  0  0  0  0  0  0
   -8.8520  -44.3250   11.1060 C   0  0  0  0  0  0  0  0  0  0  0  0
   -9.4550  -43.1110   10.8280 C   0  0  0  0  0  0  0  0  0  0  0  0
   -7.4790  -44.4360   10.9610 C   0  0  0  0  0  0  0  0  0  0  0  0
   -8.7050  -42.0260   10.4150 C   0  0  0  0  0  0  0  0  0  0  0  0
   -6.7220  -43.3540   10.5500 C   0  0  0  0  0  0  0  0  0  0  0  0
   -7.3370  -42.1480   10.2760 C   0  0  0  0  0  0  0  0  0  0  0  0
   -9.3560  -44.0330   14.6270 N   0  0  0  0  0  0  0  0  0  0  0  0
   -9.9660  -43.1770   15.6570 C   0  0  2  0  0  0  0  0  0  0  0  0
  -10.9130  -42.1300   15.0990 C   0  0  0  0  0  0  0  0  0  0  0  0
  -11.8780  -41.7630   15.7810 O   0  0  0  0  0  0  0  0  0  0  0  0
   -8.7510  -42.5330   16.3370 C   0  0  0  0  0  0  0  0  0  0  0  0
   -7.7050  -42.5170   15.2720 C   0  0  0  0  0  0  0  0  0  0  0  0
   -7.9130  -43.7790   14.4770 C   0  0  0  0  0  0  0  0  0  0  0  0
  -10.6730  -41.6370   13.8880 N   0  0  0  0  0  0  0  0  0  0  0  0
  -11.5030  -40.5920   13.3080 C   0  0  2  0  0  0  0  0  0  0  0  0
  -12.6800  -41.1980   12.5560 C   0  0  0  0  0  0  0  0  0  0  0  0
  -12.5420  -42.2160   11.8720 O   0  0  0  0  0  0  0  0  0  0  0  0
  -10.6820  -39.7110   12.3650 C   0  0  0  0  0  0  0  0  0  0  0  0
   -9.4200  -39.0710   12.9470 C   0  0  0  0  0  0  0  0  0  0  0  0
   -8.7750  -38.1460   11.9270 C   0  0  0  0  0  0  0  0  0  0  0  0
   -9.7340  -38.3220   14.2330 C   0  0  0  0  0  0  0  0  0  0  0  0
  -13.8410  -40.5620   12.6920 N   0  0  0  0  0  0  0  0  0  0  0  0
  -15.0470  -40.9540   11.9780 C   0  0  2  0  0  0  0  0  0  0  0  0
  -15.6000  -39.7400   11.2460 C   0  0  0  0  0  0  0  0  0  0  0  0
  -15.5150  -38.6140   11.7450 O   0  0  0  0  0  0  0  0  0  0  0  0
  -16.1020  -41.5310   12.9310 C   0  0  0  0  0  0  0  0  0  0  0  0
  -17.3350  -42.0980   12.2420 C   0  0  0  0  0  0  0  0  0  0  0  0
  -17.0190  -43.2930   11.3600 C   0  0  0  0  0  0  0  0  0  0  0  0
  -16.5930  -43.1430   10.2150 O   0  0  0  0  0  0  0  0  0  0  0  0
  -17.2280  -44.4910   11.8940 N   0  0  0  0  0  0  0  0  0  0  0  0
  -16.1600  -39.9710   10.0640 N   0  0  0  0  0  0  0  0  0  0  0  0
  -16.6370  -38.8900    9.2160 C   0  0  2  0  0  0  0  0  0  0  0  0
  -18.0910  -38.5510    9.5230 C   0  0  0  0  0  0  0  0  0  0  0  0
  -18.8820  -39.4100    9.9230 O   0  0  0  0  0  0  0  0  0  0  0  0
  -16.4940  -39.2630    7.7410 C   0  0  0  0  0  0  0  0  0  0  0  0
  -16.7540  -38.1460    6.9120 O   0  0  0  0  0  0  0  0  0  0  0  0
  -18.4350  -37.2810    9.3280 N   0  0  0  0  0  0  0  0  0  0  0  0
  -19.8050  -36.8270    9.5070 C   0  0  2  0  0  0  0  0  0  0  0  0
  -20.6340  -37.1120    8.2600 C   0  0  0  0  0  0  0  0  0  0  0  0
  -20.1350  -37.0750    7.1320 O   0  0  0  0  0  0  0  0  0  0  0  0
  -19.8480  -35.3290    9.8150 C   0  0  0  0  0  0  0  0  0  0  0  0
  -19.6240  -34.9720   11.2680 C   0  0  0  0  0  0  0  0  0  0  0  0
  -20.4670  -35.4540   12.2600 C   0  0  0  0  0  0  0  0  0  0  0  0
  -18.5840  -34.1310   11.6450 C   0  0  0  0  0  0  0  0  0  0  0  0
  -20.2700  -35.1240   13.5890 C   0  0  0  0  0  0  0  0  0  0  0  0
  -18.3810  -33.7930   12.9710 C   0  0  0  0  0  0  0  0  0  0  0  0
  -19.2280  -34.2920   13.9380 C   0  0  0  0  0  0  0  0  0  0  0  0
  -19.0310  -33.9600   15.2590 O   0  0  0  0  0  0  0  0  0  0  0  0
  -21.9150  -37.3970    8.4770 N   0  0  0  0  0  0  0  0  0  0  0  0
  -22.8460  -37.5840    7.3830 C   0  0  0  0  0  0  0  0  0  0  0  0
  -23.7940  -36.4110    7.2460 C   0  0  0  0  0  0  0  0  0  0  0  0
  -24.8470  -36.3780    7.8900 O   0  0  0  0  0  0  0  0  0  0  0  0
  -23.4310  -35.4390    6.4120 N   0  0  0  0  0  0  0  0  0  0  0  0
  -24.1840  -34.1980    6.2630 C   0  0  2  0  0  0  0  0  0  0  0  0
  -24.9480  -34.2280    4.9440 C   0  0  0  0  0  0  0  0  0  0  0  0
  -24.3560  -34.0720    3.8710 O   0  0  0  0  0  0  0  0  0  0  0  0
  -23.2540  -32.9880    6.3330 C   0  0  0  0  0  0  0  0  0  0  0  0
  -22.7240  -32.7140    7.7100 C   0  0  0  0  0  0  0  0  0  0  0  0
  -23.4910  -32.9950    8.8290 C   0  0  0  0  0  0  0  0  0  0  0  0
  -21.4600  -32.1780    7.8880 C   0  0  0  0  0  0  0  0  0  0  0  0
  -23.0080  -32.7460   10.0990 C   0  0  0  0  0  0  0  0  0  0  0  0
  -20.9710  -31.9260    9.1550 C   0  0  0  0  0  0  0  0  0  0  0  0
  -21.7460  -32.2110   10.2620 C   0  0  0  0  0  0  0  0  0  0  0  0
  -31.3500  -34.1790    6.3200 N   0  0  0  0  0  0  0  0  0  0  0  0
  -31.2290  -34.5640    7.7160 C   0  0  2  0  0  0  0  0  0  0  0  0
  -32.0890  -33.6660    8.6010 C   0  0  0  0  0  0  0  0  0  0  0  0
  -32.5190  -32.5800    8.2020 O   0  0  0  0  0  0  0  0  0  0  0  0
  -29.7690  -34.5030    8.1710 C   0  0  0  0  0  0  0  0  0  0  0  0
  -28.9200  -35.5970    7.5540 C   0  0  0  0  0  0  0  0  0  0  0  0
  -27.8380  -35.3370    7.0270 O   0  0  0  0  0  0  0  0  0  0  0  0
  -29.4060  -36.8310    7.6200 N   0  0  0  0  0  0  0  0  0  0  0  0
  -29.2660  -32.6330   13.2230 N   0  0  0  0  0  0  0  0  0  0  0  0
  -28.1870  -33.4070   12.6210 C   0  0  2  0  0  0  0  0  0  0  0  0
  -27.5940  -32.6880   11.4150 C   0  0  0  0  0  0  0  0  0  0  0  0
  -27.0420  -33.3240   10.5140 O   0  0  0  0  0  0  0  0  0  0  0  0
  -28.6710  -34.8030   12.2290 C   0  0  0  0  0  0  0  0  0  0  0  0
  -28.2640  -35.8770   13.2080 C   0  0  0  0  0  0  0  0  0  0  0  0
  -26.9780  -36.3980   13.1990 C   0  0  0  0  0  0  0  0  0  0  0  0
  -29.1610  -36.3630   14.1500 C   0  0  0  0  0  0  0  0  0  0  0  0
  -26.5980  -37.3770   14.0940 C   0  0  0  0  0  0  0  0  0  0  0  0
  -28.7900  -37.3440   15.0500 C   0  0  0  0  0  0  0  0  0  0  0  0
  -27.5070  -37.8460   15.0180 C   0  0  0  0  0  0  0  0  0  0  0  0
  -27.1270  -38.8210   15.9100 O   0  0  0  0  0  0  0  0  0  0  0  0
  2  1  1  1
  3  2  1  0
  4  3  2  0
  5  2  1  0
  6  5  1  0
  7  6  1  0
  8  7  1  0
  9  8  1  0
 10  9  1  0
 11  9  2  0
 13 12  1  6
 14 13  1  0
 15 14  2  0
 16 13  1  0
 17 16  1  0
 18 17  2  0
 19 17  1  0
 21 20  1  6
 22 21  1  0
 23 22  2  0
 24 21  1  0
 25 24  1  0
 26 25  2  0
 27 25  1  0
 28 26  1  0
 29 27  2  0
 30 29  1  0
 30 28  2  0
 31 30  1  0
 33 32  1  6
 34 33  1  0
 35 34  2  0
 36 33  1  0
 37 36  1  0
 38 37  1  0
 39 37  1  0
 40 34  1  0
 41 40  1  0
 42 41  1  0
 43 42  2  0
 41 44  1  6
 45 44  1  0
 46 45  2  0
 47 45  1  0
 48 46  1  0
 49 47  2  0
 50 49  1  0
 50 48  2  0
 52 51  1  1
 53 52  1  0
 54 53  2  0
 55 52  1  0
 56 55  1  0
 57 56  2  0
 58 56  1  0
 59 57  1  0
 60 58  2  0
 61 59  2  0
 61 60  1  0
 62 61  1  0
 63 53  1  0
 64 63  1  0
 65 64  1  0
 66 65  2  0
 64 67  1  6
 68 67  1  0
 69 68  2  0
 70 68  1  0
 71 69  1  0
 72 70  2  0
 73 72  1  0
 73 71  2  0
 74 65  1  0
 75 74  1  0
 75 76  1  6
 77 76  2  0
 78 75  1  0
 79 78  1  0
 80 74  1  0
 80 79  1  0
 81 76  1  0
 82 81  1  0
 83 82  1  0
 84 83  2  0
 82 85  1  6
 86 85  1  0
 87 86  1  0
 88 86  1  0
 89 83  1  0
 90 89  1  0
 91 90  1  0
 92 91  2  0
 90 93  1  1
 94 93  1  0
 95 94  1  0
 96 95  2  0
 97 95  1  0
 98 91  1  0
 99 98  1  0
100 99  1  0
101100  2  0
 99102  1  6
103102  1  0
104100  1  0
105104  1  0
106105  1  0
107106  2  0
105108  1  6
109108  1  0
110109  2  0
111109  1  0
112110  1  0
113111  2  0
114113  1  0
114112  2  0
115114  1  0
116106  1  0
117116  1  0
118117  1  0
119118  2  0
120118  1  0
121120  1  0
122121  1  0
123122  2  0
121124  1  6
125124  1  0
126125  2  0
127125  1  0
128126  1  0
129127  2  0
130128  2  0
130129  1  0
132131  1  6
133132  1  0
134133  2  0
135132  1  0
136135  1  0
137136  2  0
138136  1  0
140139  1  6
141140  1  0
142141  2  0
143140  1  0
144143  1  0
145144  2  0
146144  1  0
147145  1  0
148146  2  0
149148  1  0
149147  2  0
150149  1  0
M  END
$$$$
