
     RDKit          3D

120118  0  0  0  0  0  0  0  0999 V2000
   -5.7330   -4.5640   27.1750 N   0  0  0  0  0  0  0  0  0  0  0  0
   -5.6670   -5.8090   27.9220 C   0  0  2  0  0  0  0  0  0  0  0  0
   -5.8570   -7.0050   26.9910 C   0  0  0  0  0  0  0  0  0  0  0  0
   -6.2200   -6.8670   25.8210 O   0  0  0  0  0  0  0  0  0  0  0  0
   -6.7280   -5.8350   29.0230 C   0  0  0  0  0  0  0  0  0  0  0  0
   -6.3170   -5.1830   30.3360 C   0  0  0  0  0  0  0  0  0  0  0  0
   -7.5000   -5.1230   31.2930 C   0  0  0  0  0  0  0  0  0  0  0  0
   -8.2720   -6.3630   31.2560 N   0  0  0  0  0  0  0  0  0  0  0  0
   -9.5110   -6.4920   31.7160 C   0  0  0  0  0  0  0  0  0  0  0  0
  -10.1330   -5.4580   32.2670 N   0  0  0  0  0  0  0  0  0  0  0  0
  -10.1280   -7.6620   31.6300 N   0  0  0  0  0  0  0  0  0  0  0  0
   -8.0590   -9.7280   27.5420 N   0  0  0  0  0  0  0  0  0  0  0  0
   -9.4830  -10.0190   27.4030 C   0  0  2  0  0  0  0  0  0  0  0  0
  -10.2500   -8.9210   26.6760 C   0  0  0  0  0  0  0  0  0  0  0  0
  -11.4650   -9.0620   26.4930 O   0  0  0  0  0  0  0  0  0  0  0  0
  -10.1080  -10.2640   28.7780 C   0  0  0  0  0  0  0  0  0  0  0  0
   -9.7680  -11.6330   29.3370 C   0  0  0  0  0  0  0  0  0  0  0  0
   -9.3740  -12.5180   28.5480 O   0  0  0  0  0  0  0  0  0  0  0  0
   -9.9010  -11.8290   30.5650 O   0  0  0  0  0  0  0  0  0  0  0  0
   -6.7450    4.2680   29.8300 N   0  0  0  0  0  0  0  0  0  0  0  0
   -7.9100    4.0980   28.9750 C   0  0  2  0  0  0  0  0  0  0  0  0
   -9.0440    4.9510   29.5250 C   0  0  0  0  0  0  0  0  0  0  0  0
   -9.0340    5.3580   30.6900 O   0  0  0  0  0  0  0  0  0  0  0  0
   -8.3440    2.6290   28.8710 C   0  0  0  0  0  0  0  0  0  0  0  0
   -8.9310    2.0460   30.1380 C   0  0  0  0  0  0  0  0  0  0  0  0
   -8.1140    1.5430   31.1400 C   0  0  0  0  0  0  0  0  0  0  0  0
  -10.3070    1.9800   30.3200 C   0  0  0  0  0  0  0  0  0  0  0  0
   -8.6510    1.0040   32.2950 C   0  0  0  0  0  0  0  0  0  0  0  0
  -10.8520    1.4440   31.4700 C   0  0  0  0  0  0  0  0  0  0  0  0
  -10.0190    0.9560   32.4530 C   0  0  0  0  0  0  0  0  0  0  0  0
  -10.5560    0.4190   33.6010 O   0  0  0  0  0  0  0  0  0  0  0  0
   -8.8800    5.8580   33.4240 N   0  0  0  0  0  0  0  0  0  0  0  0
   -8.4440    4.8350   34.3610 C   0  0  2  0  0  0  0  0  0  0  0  0
   -7.0970    4.2760   33.9150 C   0  0  0  0  0  0  0  0  0  0  0  0
   -6.7880    4.2310   32.7210 O   0  0  0  0  0  0  0  0  0  0  0  0
   -9.4800    3.7120   34.4630 C   0  0  0  0  0  0  0  0  0  0  0  0
   -9.1800    2.6470   35.5130 C   0  0  0  0  0  0  0  0  0  0  0  0
   -9.2600    3.1760   36.9310 C   0  0  0  0  0  0  0  0  0  0  0  0
   -9.8700    4.2150   37.1870 O   0  0  0  0  0  0  0  0  0  0  0  0
   -8.6410    2.4610   37.8650 N   0  0  0  0  0  0  0  0  0  0  0  0
   -6.2920    3.8560   34.8860 N   0  0  0  0  0  0  0  0  0  0  0  0
   -4.9340    3.3950   34.6300 C   0  0  2  0  0  0  0  0  0  0  0  0
   -4.8770    1.8730   34.6270 C   0  0  0  0  0  0  0  0  0  0  0  0
   -5.4260    1.2230   35.5230 O   0  0  0  0  0  0  0  0  0  0  0  0
   -3.9690    3.9510   35.6780 C   0  0  0  0  0  0  0  0  0  0  0  0
   -2.6440    3.5160   35.4260 O   0  0  0  0  0  0  0  0  0  0  0  0
   -4.2130    1.3120   33.6180 N   0  0  0  0  0  0  0  0  0  0  0  0
   -3.9390   -0.1190   33.6010 C   0  0  2  0  0  0  0  0  0  0  0  0
   -2.8650   -0.4570   34.6280 C   0  0  0  0  0  0  0  0  0  0  0  0
   -1.8110    0.1850   34.6740 O   0  0  0  0  0  0  0  0  0  0  0  0
   -3.4840   -0.5650   32.2110 C   0  0  0  0  0  0  0  0  0  0  0  0
   -4.5750   -0.6490   31.1660 C   0  0  0  0  0  0  0  0  0  0  0  0
   -5.5960   -1.5840   31.2730 C   0  0  0  0  0  0  0  0  0  0  0  0
   -4.5660    0.1880   30.0580 C   0  0  0  0  0  0  0  0  0  0  0  0
   -6.5880   -1.6720   30.3120 C   0  0  0  0  0  0  0  0  0  0  0  0
   -5.5530    0.1070   29.0920 C   0  0  0  0  0  0  0  0  0  0  0  0
   -6.5610   -0.8250   29.2240 C   0  0  0  0  0  0  0  0  0  0  0  0
   -7.5450   -0.9070   28.2660 O   0  0  0  0  0  0  0  0  0  0  0  0
   -3.1300   -1.4680   35.4500 N   0  0  0  0  0  0  0  0  0  0  0  0
   -2.1460   -1.9290   36.4090 C   0  0  0  0  0  0  0  0  0  0  0  0
   -1.2770   -3.0290   35.8390 C   0  0  0  0  0  0  0  0  0  0  0  0
   -1.3180   -4.1710   36.3080 O   0  0  0  0  0  0  0  0  0  0  0  0
   -0.4830   -2.6940   34.8230 N   0  0  0  0  0  0  0  0  0  0  0  0
    0.2920   -3.6900   34.0900 C   0  0  2  0  0  0  0  0  0  0  0  0
    1.4720   -4.1560   34.9330 C   0  0  0  0  0  0  0  0  0  0  0  0
    2.4030   -3.3880   35.1970 O   0  0  0  0  0  0  0  0  0  0  0  0
    0.7630   -3.1140   32.7590 C   0  0  0  0  0  0  0  0  0  0  0  0
   -0.3060   -3.0750   31.7050 C   0  0  0  0  0  0  0  0  0  0  0  0
   -1.3410   -3.9960   31.7170 C   0  0  0  0  0  0  0  0  0  0  0  0
   -0.2800   -2.1160   30.7060 C   0  0  0  0  0  0  0  0  0  0  0  0
   -2.3290   -3.9630   30.7510 C   0  0  0  0  0  0  0  0  0  0  0  0
   -1.2650   -2.0780   29.7370 C   0  0  0  0  0  0  0  0  0  0  0  0
   -2.2910   -3.0030   29.7600 C   0  0  0  0  0  0  0  0  0  0  0  0
    1.4320   -5.4150   35.3540 N   0  0  0  0  0  0  0  0  0  0  0  0
    2.4990   -6.0570   36.1020 C   0  0  2  0  0  0  0  0  0  0  0  0
    2.8470   -7.3820   35.4420 C   0  0  0  0  0  0  0  0  0  0  0  0
    1.9790   -8.0310   34.8500 O   0  0  0  0  0  0  0  0  0  0  0  0
    2.0900   -6.2990   37.5620 C   0  0  0  0  0  0  0  0  0  0  0  0
    1.7710   -5.0300   38.3330 C   0  0  0  0  0  0  0  0  0  0  0  0
    1.2080   -5.3090   39.7130 C   0  0  0  0  0  0  0  0  0  0  0  0
    0.8070   -6.4330   40.0180 O   0  0  0  0  0  0  0  0  0  0  0  0
    1.1750   -4.2840   40.5560 N   0  0  0  0  0  0  0  0  0  0  0  0
    3.2770  -10.1790   36.7010 N   0  0  0  0  0  0  0  0  0  0  0  0
    2.6720  -11.3050   37.3970 C   0  0  2  0  0  0  0  0  0  0  0  0
    1.1580  -11.3590   37.2260 C   0  0  0  0  0  0  0  0  0  0  0  0
    0.4990  -12.1670   37.8880 O   0  0  0  0  0  0  0  0  0  0  0  0
    3.0270  -11.2530   38.8850 C   0  0  2  0  0  0  0  0  0  0  0  0
    2.4220  -12.3610   39.5630 O   0  0  0  0  0  0  0  0  0  0  0  0
    2.5350   -9.9520   39.5050 C   0  0  0  0  0  0  0  0  0  0  0  0
    0.5950  -10.5210   36.3580 N   0  0  0  0  0  0  0  0  0  0  0  0
   -0.8420  -10.5210   36.1310 C   0  0  2  0  0  0  0  0  0  0  0  0
   -1.2730  -11.7680   35.3660 C   0  0  0  0  0  0  0  0  0  0  0  0
   -0.4640  -12.4700   34.7530 O   0  0  0  0  0  0  0  0  0  0  0  0
   -1.2640   -9.2750   35.3520 C   0  0  0  0  0  0  0  0  0  0  0  0
   -1.1320   -8.0070   36.1650 C   0  0  0  0  0  0  0  0  0  0  0  0
   -0.6310   -8.0240   37.2880 O   0  0  0  0  0  0  0  0  0  0  0  0
   -1.5800   -6.8930   35.5970 N   0  0  0  0  0  0  0  0  0  0  0  0
   -2.5730  -12.0380   35.4080 N   0  0  0  0  0  0  0  0  0  0  0  0
   -3.1390  -13.0780   34.5790 C   0  0  0  0  0  0  0  0  0  0  0  0
   -3.0830  -12.7050   33.1100 C   0  0  0  0  0  0  0  0  0  0  0  0
   -2.8570  -11.5540   32.7310 O   0  0  0  0  0  0  0  0  0  0  0  0
   -3.2990  -13.7150   32.2620 N   0  0  0  0  0  0  0  0  0  0  0  0
   -3.2000  -13.5060   30.8190 C   0  0  2  0  0  0  0  0  0  0  0  0
   -4.2080  -12.4620   30.3570 C   0  0  0  0  0  0  0  0  0  0  0  0
   -3.9120  -11.6330   29.4880 O   0  0  0  0  0  0  0  0  0  0  0  0
   -3.3860  -14.8400   30.0720 C   0  0  0  0  0  0  0  0  0  0  0  0
   -3.0610  -14.6700   28.5970 C   0  0  0  0  0  0  0  0  0  0  0  0
   -2.5210  -15.9230   30.6970 C   0  0  0  0  0  0  0  0  0  0  0  0
   -5.2820   -9.8710   31.9090 N   0  0  0  0  0  0  0  0  0  0  0  0
   -4.9170   -8.5270   32.3390 C   0  0  2  0  0  0  0  0  0  0  0  0
   -3.5090   -8.1320   31.9090 C   0  0  0  0  0  0  0  0  0  0  0  0
   -3.0320   -7.0600   32.2980 O   0  0  0  0  0  0  0  0  0  0  0  0
   -5.0570   -8.4020   33.8570 C   0  0  0  0  0  0  0  0  0  0  0  0
   -6.4580   -8.0670   34.3220 C   0  0  0  0  0  0  0  0  0  0  0  0
   -7.3790   -9.0700   34.6000 C   0  0  0  0  0  0  0  0  0  0  0  0
   -6.8590   -6.7470   34.4860 C   0  0  0  0  0  0  0  0  0  0  0  0
   -8.6600   -8.7660   35.0270 C   0  0  0  0  0  0  0  0  0  0  0  0
   -8.1360   -6.4340   34.9130 C   0  0  0  0  0  0  0  0  0  0  0  0
   -9.0320   -7.4470   35.1810 C   0  0  0  0  0  0  0  0  0  0  0  0
  -10.3030   -7.1380   35.6060 O   0  0  0  0  0  0  0  0  0  0  0  0
  2  1  1  6
  3  2  1  0
  4  3  2  0
  5  2  1  0
  6  5  1  0
  7  6  1  0
  8  7  1  0
  9  8  1  0
 10  9  1  0
 11  9  2  0
 13 12  1  1
 14 13  1  0
 15 14  2  0
 16 13  1  0
 17 16  1  0
 18 17  2  0
 19 17  1  0
 21 20  1  1
 22 21  1  0
 23 22  2  0
 24 21  1  0
 25 24  1  0
 26 25  2  0
 27 25  1  0
 28 26  1  0
 29 27  2  0
 30 29  1  0
 30 28  2  0
 31 30  1  0
 33 32  1  6
 34 33  1  0
 35 34  2  0
 36 33  1  0
 37 36  1  0
 38 37  1  0
 39 38  2  0
 40 38  1  0
 41 34  1  0
 42 41  1  0
 43 42  1  0
 44 43  2  0
 42 45  1  1
 46 45  1  0
 47 43  1  0
 48 47  1  0
 49 48  1  0
 50 49  2  0
 48 51  1  6
 52 51  1  0
 53 52  2  0
 54 52  1  0
 55 53  1  0
 56 54  2  0
 57 56  1  0
 57 55  2  0
 58 57  1  0
 59 49  1  0
 60 59  1  0
 61 60  1  0
 62 61  2  0
 63 61  1  0
 64 63  1  0
 65 64  1  0
 66 65  2  0
 64 67  1  6
 68 67  1  0
 69 68  2  0
 70 68  1  0
 71 69  1  0
 72 70  2  0
 73 72  1  0
 73 71  2  0
 74 65  1  0
 75 74  1  0
 76 75  1  0
 77 76  2  0
 75 78  1  1
 79 78  1  0
 80 79  1  0
 81 80  2  0
 82 80  1  0
 84 83  1  6
 85 84  1  0
 86 85  2  0
 87 84  1  0
 88 87  1  0
 87 89  1  1
 90 85  1  0
 91 90  1  0
 92 91  1  0
 93 92  2  0
 91 94  1  6
 95 94  1  0
 96 95  2  0
 97 95  1  0
 98 92  1  0
 99 98  1  0
100 99  1  0
101100  2  0
102100  1  0
103102  1  1
104103  1  0
105104  2  0
106103  1  0
107106  1  0
108106  1  0
110109  1  1
111110  1  0
112111  2  0
113110  1  0
114113  1  0
115114  2  0
116114  1  0
117115  1  0
118116  2  0
119118  1  0
119117  2  0
120119  1  0
M  END
$$$$
