
     RDKit          3D

 76 71  0  0  0  0  0  0  0  0999 V2000
  247.7020  284.9900  232.7970 N   0  0  0  0  0  0  0  0  0  0  0  0
  247.5420  286.3860  232.3960 C   0  0  2  0  0  0  0  0  0  0  0  0
  246.2510  286.9380  232.9730 C   0  0  0  0  0  0  0  0  0  0  0  0
  245.1850  286.3370  232.8080 O   0  0  0  0  0  0  0  0  0  0  0  0
  247.5460  286.5950  230.8790 C   0  0  0  0  0  0  0  0  0  0  0  0
  248.8750  286.3070  230.2480 C   0  0  0  0  0  0  0  0  0  0  0  0
  249.8410  285.9950  230.9270 O   0  0  0  0  0  0  0  0  0  0  0  0
  248.9450  286.4750  228.9360 N   0  0  0  0  0  0  0  0  0  0  0  0
  245.0560  289.4530  231.6760 N   0  0  0  0  0  0  0  0  0  0  0  0
  244.3630  289.8560  230.4610 C   0  0  2  0  0  0  0  0  0  0  0  0
  243.5420  288.7290  229.8510 C   0  0  0  0  0  0  0  0  0  0  0  0
  242.7160  288.9940  228.9720 O   0  0  0  0  0  0  0  0  0  0  0  0
  245.3640  290.3680  229.4240 C   0  0  2  0  0  0  0  0  0  0  0  0
  246.2340  289.3000  229.0300 O   0  0  0  0  0  0  0  0  0  0  0  0
  246.1920  291.5070  230.0010 C   0  0  0  0  0  0  0  0  0  0  0  0
  243.7400  287.4900  230.2930 N   0  0  0  0  0  0  0  0  0  0  0  0
  242.9560  286.3490  229.8360 C   0  0  2  0  0  0  0  0  0  0  0  0
  242.0140  285.9450  230.9610 C   0  0  0  0  0  0  0  0  0  0  0  0
  242.4640  285.5010  232.0220 O   0  0  0  0  0  0  0  0  0  0  0  0
  243.8630  285.1850  229.4360 C   0  0  0  0  0  0  0  0  0  0  0  0
  243.0960  284.0030  228.8610 C   0  0  0  0  0  0  0  0  0  0  0  0
  241.8710  283.9290  228.9480 O   0  0  0  0  0  0  0  0  0  0  0  0
  243.8240  283.0700  228.2640 N   0  0  0  0  0  0  0  0  0  0  0  0
  240.7100  286.0910  230.7240 N   0  0  0  0  0  0  0  0  0  0  0  0
  239.7340  285.8250  231.7730 C   0  0  2  0  0  0  0  0  0  0  0  0
  239.5620  284.3390  232.0520 C   0  0  0  0  0  0  0  0  0  0  0  0
  239.0240  283.9820  233.1040 O   0  0  0  0  0  0  0  0  0  0  0  0
  238.3850  286.4410  231.4070 C   0  0  0  0  0  0  0  0  0  0  0  0
  237.7840  285.8360  230.1560 C   0  0  0  0  0  0  0  0  0  0  0  0
  237.3520  284.6840  230.1530 O   0  0  0  0  0  0  0  0  0  0  0  0
  237.7470  286.6170  229.0850 N   0  0  0  0  0  0  0  0  0  0  0  0
  241.7340  281.9510  232.7850 N   0  0  0  0  0  0  0  0  0  0  0  0
  242.4940  281.4780  233.9300 C   0  0  2  0  0  0  0  0  0  0  0  0
  241.9600  282.0840  235.2210 C   0  0  0  0  0  0  0  0  0  0  0  0
  241.4420  283.2040  235.2430 O   0  0  0  0  0  0  0  0  0  0  0  0
  243.9740  281.8170  233.7640 C   0  0  0  0  0  0  0  0  0  0  0  0
  244.7090  280.8710  232.8380 C   0  0  0  0  0  0  0  0  0  0  0  0
  244.5680  281.2970  231.3870 C   0  0  0  0  0  0  0  0  0  0  0  0
  245.1040  280.2290  230.4540 C   0  0  0  0  0  0  0  0  0  0  0  0
  244.6470  280.4330  229.0560 N   0  0  0  0  0  0  0  0  0  0  0  0
  234.1810  288.5540  231.0560 N   0  0  0  0  0  0  0  0  0  0  0  0
  234.5350  289.1110  229.7690 C   0  0  0  0  0  0  0  0  0  0  0  0
  233.9350  290.4830  229.5370 C   0  0  0  0  0  0  0  0  0  0  0  0
  232.9280  290.8710  230.1290 O   0  0  0  0  0  0  0  0  0  0  0  0
  234.5890  291.2360  228.6520 N   0  0  0  0  0  0  0  0  0  0  0  0
  234.1300  292.5570  228.2870 C   0  0  0  0  0  0  0  0  0  0  0  0
  233.2060  292.5320  227.0850 C   0  0  0  0  0  0  0  0  0  0  0  0
  232.9220  291.4910  226.4950 O   0  0  0  0  0  0  0  0  0  0  0  0
  232.7330  293.7180  226.7200 N   0  0  0  0  0  0  0  0  0  0  0  0
  231.8080  293.8730  225.6100 C   0  0  2  0  0  0  0  0  0  0  0  0
  232.5550  294.2860  224.3510 C   0  0  0  0  0  0  0  0  0  0  0  0
  233.6590  294.8340  224.4100 O   0  0  0  0  0  0  0  0  0  0  0  0
  230.7230  294.9010  225.9400 C   0  0  0  0  0  0  0  0  0  0  0  0
  231.2850  296.1730  226.5410 C   0  0  0  0  0  0  0  0  0  0  0  0
  232.3360  296.6510  226.0670 O   0  0  0  0  0  0  0  0  0  0  0  0
  230.6780  296.6890  227.5010 O   0  0  0  0  0  0  0  0  0  0  0  0
  231.9410  294.0110  223.2050 N   0  0  0  0  0  0  0  0  0  0  0  0
  232.5260  294.3350  221.9140 C   0  0  2  0  0  0  0  0  0  0  0  0
  232.1010  295.7000  221.3930 C   0  0  0  0  0  0  0  0  0  0  0  0
  232.4860  296.0660  220.2770 O   0  0  0  0  0  0  0  0  0  0  0  0
  232.1640  293.2580  220.8860 C   0  0  0  0  0  0  0  0  0  0  0  0
  231.3190  296.4610  222.1590 N   0  0  0  0  0  0  0  0  0  0  0  0
  230.8250  297.7540  221.7050 C   0  0  2  0  0  0  0  0  0  0  0  0
  231.3700  298.9120  222.5330 C   0  0  0  0  0  0  0  0  0  0  0  0
  232.0000  299.8180  221.9800 O   0  0  0  0  0  0  0  0  0  0  0  0
  229.2900  297.7550  221.7190 C   0  0  0  0  0  0  0  0  0  0  0  0
  228.6970  298.4960  220.5370 C   0  0  0  0  0  0  0  0  0  0  0  0
  229.4230  299.0140  219.6880 O   0  0  0  0  0  0  0  0  0  0  0  0
  227.3720  298.5470  220.4730 N   0  0  0  0  0  0  0  0  0  0  0  0
  232.8330  299.6060  226.7250 N   0  0  0  0  0  0  0  0  0  0  0  0
  232.9930  299.2920  228.1390 C   0  0  2  0  0  0  0  0  0  0  0  0
  232.5790  300.4860  228.9900 C   0  0  0  0  0  0  0  0  0  0  0  0
  232.9460  301.6280  228.6930 O   0  0  0  0  0  0  0  0  0  0  0  0
  234.4420  298.9160  228.4520 C   0  0  2  0  0  0  0  0  0  0  0  0
  235.3030  300.0150  228.1310 O   0  0  0  0  0  0  0  0  0  0  0  0
  234.8680  297.6960  227.6550 C   0  0  0  0  0  0  0  0  0  0  0  0
  2  1  1  6
  3  2  1  0
  4  3  2  0
  5  2  1  0
  6  5  1  0
  7  6  2  0
  8  6  1  0
 10  9  1  1
 11 10  1  0
 12 11  2  0
 13 10  1  0
 14 13  1  0
 13 15  1  1
 16 11  1  0
 17 16  1  0
 18 17  1  0
 19 18  2  0
 17 20  1  1
 21 20  1  0
 22 21  2  0
 23 21  1  0
 24 18  1  0
 25 24  1  0
 26 25  1  0
 27 26  2  0
 25 28  1  6
 29 28  1  0
 30 29  2  0
 31 29  1  0
 33 32  1  6
 34 33  1  0
 35 34  2  0
 36 33  1  0
 37 36  1  0
 38 37  1  0
 39 38  1  0
 40 39  1  0
 42 41  1  0
 43 42  1  0
 44 43  2  0
 45 43  1  0
 46 45  1  0
 47 46  1  0
 48 47  2  0
 49 47  1  0
 50 49  1  0
 51 50  1  0
 52 51  2  0
 50 53  1  1
 54 53  1  0
 55 54  2  0
 56 54  1  0
 57 51  1  0
 58 57  1  0
 59 58  1  0
 60 59  2  0
 58 61  1  6
 62 59  1  0
 63 62  1  0
 64 63  1  0
 65 64  2  0
 63 66  1  1
 67 66  1  0
 68 67  2  0
 69 67  1  0
 71 70  1  6
 72 71  1  0
 73 72  2  0
 74 71  1  0
 75 74  1  0
 74 76  1  6
M  END
$$$$
