
     RDKit          3D

 85 84  0  0  0  0  0  0  0  0999 V2000
   12.6520    4.9180   47.2110 N   0  0  0  0  0  0  0  0  0  0  0  0
   12.9400    5.1460   45.7990 C   0  0  2  0  0  0  0  0  0  0  0  0
   12.6320    6.5850   45.3910 C   0  0  0  0  0  0  0  0  0  0  0  0
   11.5540    7.1140   45.7000 O   0  0  0  0  0  0  0  0  0  0  0  0
   12.0960    4.1730   44.9570 C   0  0  0  0  0  0  0  0  0  0  0  0
   12.2310    4.3360   43.4390 C   0  0  0  0  0  0  0  0  0  0  0  0
   13.6260    3.9490   43.0350 C   0  0  0  0  0  0  0  0  0  0  0  0
   11.2080    3.4500   42.7250 C   0  0  0  0  0  0  0  0  0  0  0  0
   13.5880    7.2210   44.7070 N   0  0  0  0  0  0  0  0  0  0  0  0
   13.3960    8.5750   44.2160 C   0  0  0  0  0  0  0  0  0  0  0  0
   13.4660    9.6420   45.2810 C   0  0  0  0  0  0  0  0  0  0  0  0
   13.0310   10.7760   45.0390 O   0  0  0  0  0  0  0  0  0  0  0  0
   14.0020    9.3130   46.4610 N   0  0  0  0  0  0  0  0  0  0  0  0
   14.2690   10.2800   47.5140 C   0  0  2  0  0  0  0  0  0  0  0  0
   15.7350   10.1900   47.9350 C   0  0  0  0  0  0  0  0  0  0  0  0
   16.4420    9.2100   47.6530 O   0  0  0  0  0  0  0  0  0  0  0  0
   13.4110   10.0400   48.7620 C   0  0  2  0  0  0  0  0  0  0  0  0
   13.9030    8.8820   49.4650 O   0  0  0  0  0  0  0  0  0  0  0  0
   11.9250    9.8410   48.4060 C   0  0  0  0  0  0  0  0  0  0  0  0
   18.3210   10.1680   44.8670 N   0  0  0  0  0  0  0  0  0  0  0  0
   16.9420   10.2620   44.3880 C   0  0  2  0  0  0  0  0  0  0  0  0
   16.8460   10.0780   42.8830 C   0  0  0  0  0  0  0  0  0  0  0  0
   15.8160    9.6030   42.3830 O   0  0  0  0  0  0  0  0  0  0  0  0
   16.3490   11.6160   44.7720 C   0  0  0  0  0  0  0  0  0  0  0  0
   17.9040   10.4310   42.1490 N   0  0  0  0  0  0  0  0  0  0  0  0
   17.8880   10.2990   40.7010 C   0  0  0  0  0  0  0  0  0  0  0  0
   18.0940    8.9040   40.1680 C   0  0  0  0  0  0  0  0  0  0  0  0
   17.8690    8.6870   38.9730 O   0  0  0  0  0  0  0  0  0  0  0  0
   18.5110    7.9380   41.0200 N   0  0  0  0  0  0  0  0  0  0  0  0
   18.7840    6.5830   40.5220 C   0  0  2  0  0  0  0  0  0  0  0  0
   17.4900    5.7890   40.3420 C   0  0  0  0  0  0  0  0  0  0  0  0
   16.5950    5.8360   41.2010 O   0  0  0  0  0  0  0  0  0  0  0  0
   19.6860    5.8130   41.4900 C   0  0  0  0  0  0  0  0  0  0  0  0
   21.1090    6.3410   41.6400 C   0  0  0  0  0  0  0  0  0  0  0  0
   21.9080    5.3880   42.5060 C   0  0  0  0  0  0  0  0  0  0  0  0
   21.7520    6.5250   40.2700 C   0  0  0  0  0  0  0  0  0  0  0  0
   17.3760    5.0340   39.2480 N   0  0  0  0  0  0  0  0  0  0  0  0
   16.2860    4.0660   39.1190 C   0  0  2  0  0  0  0  0  0  0  0  0
   16.6040    2.7920   39.8780 C   0  0  0  0  0  0  0  0  0  0  0  0
   17.7610    2.4720   40.1530 O   0  0  0  0  0  0  0  0  0  0  0  0
   16.2300    3.7920   37.6090 C   0  0  0  0  0  0  0  0  0  0  0  0
   17.7380    3.8860   37.2270 C   0  0  0  0  0  0  0  0  0  0  0  0
   18.2810    5.0180   38.0770 C   0  0  0  0  0  0  0  0  0  0  0  0
   15.5450    2.0640   40.2270 N   0  0  0  0  0  0  0  0  0  0  0  0
   15.7320    0.8140   40.9500 C   0  0  2  0  0  0  0  0  0  0  0  0
   16.7330   -0.0830   40.2200 C   0  0  0  0  0  0  0  0  0  0  0  0
   16.6520   -0.2660   38.9960 O   0  0  0  0  0  0  0  0  0  0  0  0
   14.3860    0.1040   41.0970 C   0  0  0  0  0  0  0  0  0  0  0  0
   14.4490   -1.0520   42.0560 C   0  0  0  0  0  0  0  0  0  0  0  0
   14.3570   -0.8360   43.4180 C   0  0  0  0  0  0  0  0  0  0  0  0
   14.6310   -2.3540   41.6120 C   0  0  0  0  0  0  0  0  0  0  0  0
   14.4240   -1.8750   44.3060 C   0  0  0  0  0  0  0  0  0  0  0  0
   14.6980   -3.4160   42.5150 C   0  0  0  0  0  0  0  0  0  0  0  0
   14.5880   -3.1550   43.8570 C   0  0  0  0  0  0  0  0  0  0  0  0
   14.6820   -4.1670   44.7760 O   0  0  0  0  0  0  0  0  0  0  0  0
    7.1520    0.4360   41.3540 N   0  0  0  0  0  0  0  0  0  0  0  0
    8.3910    1.0580   40.9170 C   0  0  2  0  0  0  0  0  0  0  0  0
    8.0940    2.4680   40.3910 C   0  0  0  0  0  0  0  0  0  0  0  0
    8.1080    2.7490   39.1860 O   0  0  0  0  0  0  0  0  0  0  0  0
    9.0320    0.1730   39.8560 C   0  0  0  0  0  0  0  0  0  0  0  0
   10.3300    0.7160   39.3790 C   0  0  0  0  0  0  0  0  0  0  0  0
   11.0970    1.2450   40.1700 O   0  0  0  0  0  0  0  0  0  0  0  0
   10.5580    0.6610   38.0570 N   0  0  0  0  0  0  0  0  0  0  0  0
    7.7630    3.3590   41.3270 N   0  0  0  0  0  0  0  0  0  0  0  0
    7.4270    4.7620   41.0560 C   0  0  2  0  0  0  0  0  0  0  0  0
    8.1090    5.5790   42.1520 C   0  0  0  0  0  0  0  0  0  0  0  0
    8.1070    5.1580   43.3090 O   0  0  0  0  0  0  0  0  0  0  0  0
    5.9020    5.0300   41.0700 C   0  0  2  0  0  0  0  0  0  0  0  0
    5.3300    4.5600   42.3120 O   0  0  0  0  0  0  0  0  0  0  0  0
    5.2110    4.3230   39.9060 C   0  0  0  0  0  0  0  0  0  0  0  0
    8.6680    6.7480   41.8400 N   0  0  0  0  0  0  0  0  0  0  0  0
    9.3260    7.5480   42.8850 C   0  0  2  0  0  0  0  0  0  0  0  0
    8.3760    7.9650   44.0040 C   0  0  0  0  0  0  0  0  0  0  0  0
    7.1940    8.2570   43.7810 O   0  0  0  0  0  0  0  0  0  0  0  0
    9.8570    8.7580   42.1130 C   0  0  0  0  0  0  0  0  0  0  0  0
   10.0590    8.2340   40.6900 C   0  0  0  0  0  0  0  0  0  0  0  0
    8.8610    7.3270   40.5000 C   0  0  0  0  0  0  0  0  0  0  0  0
    7.8780   10.6130   45.8680 N   0  0  0  0  0  0  0  0  0  0  0  0
    7.9670   12.0490   46.1130 C   0  0  2  0  0  0  0  0  0  0  0  0
    7.0780   12.4860   47.2710 C   0  0  0  0  0  0  0  0  0  0  0  0
    7.3830   13.4850   47.9380 O   0  0  0  0  0  0  0  0  0  0  0  0
    7.5880   12.8210   44.8470 C   0  0  0  0  0  0  0  0  0  0  0  0
    8.5310   12.5590   43.7060 C   0  0  0  0  0  0  0  0  0  0  0  0
    9.7550   12.5020   43.9080 O   0  0  0  0  0  0  0  0  0  0  0  0
    8.0540   12.4310   42.5840 O   0  0  0  0  0  0  0  0  0  0  0  0
  2  1  1  1
  3  2  1  0
  4  3  2  0
  5  2  1  0
  6  5  1  0
  7  6  1  0
  8  6  1  0
  9  3  1  0
 10  9  1  0
 11 10  1  0
 12 11  2  0
 13 11  1  0
 14 13  1  6
 15 14  1  0
 16 15  2  0
 17 14  1  0
 18 17  1  0
 17 19  1  6
 21 20  1  0
 22 21  1  0
 23 22  2  0
 21 24  1  6
 25 22  1  0
 26 25  1  0
 27 26  1  0
 28 27  2  0
 29 27  1  0
 30 29  1  0
 31 30  1  0
 32 31  2  0
 30 33  1  1
 34 33  1  0
 35 34  1  0
 36 34  1  0
 37 31  1  0
 38 37  1  0
 38 39  1  1
 40 39  2  0
 41 38  1  0
 42 41  1  0
 43 42  1  0
 43 37  1  0
 44 39  1  0
 45 44  1  0
 46 45  1  0
 47 46  2  0
 45 48  1  6
 49 48  1  0
 50 49  2  0
 51 49  1  0
 52 50  1  0
 53 51  2  0
 54 53  1  0
 54 52  2  0
 55 54  1  0
 57 56  1  6
 58 57  1  0
 59 58  2  0
 60 57  1  0
 61 60  1  0
 62 61  2  0
 63 61  1  0
 64 58  1  0
 65 64  1  1
 66 65  1  0
 67 66  2  0
 68 65  1  0
 69 68  1  0
 68 70  1  6
 71 66  1  0
 72 71  1  0
 72 73  1  1
 74 73  2  0
 75 72  1  0
 76 75  1  0
 77 76  1  0
 77 71  1  0
 79 78  1  6
 80 79  1  0
 81 80  2  0
 82 79  1  0
 83 82  1  0
 84 83  2  0
 85 83  1  0
M  END
$$$$
