
     RDKit          3D

137136  0  0  0  0  0  0  0  0999 V2000
   68.5670   12.7800  -41.9740 N   0  0  0  0  0  0  0  0  0  0  0  0
   67.5990   13.8460  -42.0460 C   0  0  2  0  0  0  0  0  0  0  0  0
   68.1110   15.0380  -41.2430 C   0  0  0  0  0  0  0  0  0  0  0  0
   68.8390   14.8550  -40.2750 O   0  0  0  0  0  0  0  0  0  0  0  0
   66.2600   13.2860  -41.5300 C   0  0  0  0  0  0  0  0  0  0  0  0
   65.2220   14.1660  -41.8060 C   0  0  0  0  0  0  0  0  0  0  0  0
   63.8080   13.7880  -41.3720 C   0  0  0  0  0  0  0  0  0  0  0  0
   63.7680   13.4870  -39.9400 N   0  0  0  0  0  0  0  0  0  0  0  0
   62.8190   13.4260  -39.0180 C   0  0  0  0  0  0  0  0  0  0  0  0
   62.9960   12.5860  -38.0050 N   0  0  0  0  0  0  0  0  0  0  0  0
   62.1270   14.4990  -38.7180 N   0  0  0  0  0  0  0  0  0  0  0  0
   68.1390   15.2140  -37.4850 N   0  0  0  0  0  0  0  0  0  0  0  0
   68.8800   14.1500  -36.8300 C   0  0  2  0  0  0  0  0  0  0  0  0
   70.3660   14.4400  -36.7010 C   0  0  0  0  0  0  0  0  0  0  0  0
   71.0680   13.6780  -36.0220 O   0  0  0  0  0  0  0  0  0  0  0  0
   68.6920   12.8290  -37.5820 C   0  0  0  0  0  0  0  0  0  0  0  0
   67.2610   12.2960  -37.5580 C   0  0  0  0  0  0  0  0  0  0  0  0
   67.0500   11.1350  -38.5250 C   0  0  0  0  0  0  0  0  0  0  0  0
   67.7020   11.1110  -39.5990 O   0  0  0  0  0  0  0  0  0  0  0  0
   66.2330   10.2380  -38.2110 O   0  0  0  0  0  0  0  0  0  0  0  0
   64.0400    7.1060  -52.6180 N   0  0  0  0  0  0  0  0  0  0  0  0
   63.8380    6.0260  -51.6690 C   0  0  2  0  0  0  0  0  0  0  0  0
   65.0940    5.1960  -51.4650 C   0  0  0  0  0  0  0  0  0  0  0  0
   65.0490    4.1770  -50.7660 O   0  0  0  0  0  0  0  0  0  0  0  0
   62.6480    5.1730  -52.1130 C   0  0  0  0  0  0  0  0  0  0  0  0
   61.3470    5.9180  -51.9070 C   0  0  0  0  0  0  0  0  0  0  0  0
   60.8420    6.1240  -50.6210 C   0  0  0  0  0  0  0  0  0  0  0  0
   60.6480    6.4600  -52.9810 C   0  0  0  0  0  0  0  0  0  0  0  0
   59.6720    6.8230  -50.4120 C   0  0  0  0  0  0  0  0  0  0  0  0
   59.4600    7.1690  -52.7800 C   0  0  0  0  0  0  0  0  0  0  0  0
   58.9820    7.3500  -51.4900 C   0  0  0  0  0  0  0  0  0  0  0  0
   57.8080    8.0500  -51.2650 O   0  0  0  0  0  0  0  0  0  0  0  0
   67.2580    3.9280  -43.1870 N   0  0  0  0  0  0  0  0  0  0  0  0
   67.7430    3.8810  -41.8130 C   0  0  2  0  0  0  0  0  0  0  0  0
   67.0740    2.7140  -41.1060 C   0  0  0  0  0  0  0  0  0  0  0  0
   65.9810    2.2850  -41.4870 O   0  0  0  0  0  0  0  0  0  0  0  0
   67.4550    5.1820  -41.0510 C   0  0  0  0  0  0  0  0  0  0  0  0
   65.9690    5.3920  -40.7970 C   0  0  0  0  0  0  0  0  0  0  0  0
   65.1660    5.9950  -41.7540 C   0  0  0  0  0  0  0  0  0  0  0  0
   65.3760    4.9780  -39.6120 C   0  0  0  0  0  0  0  0  0  0  0  0
   63.8270    6.1720  -41.5430 C   0  0  0  0  0  0  0  0  0  0  0  0
   64.0220    5.1530  -39.3860 C   0  0  0  0  0  0  0  0  0  0  0  0
   63.2550    5.7500  -40.3580 C   0  0  0  0  0  0  0  0  0  0  0  0
   61.9080    5.9410  -40.1580 O   0  0  0  0  0  0  0  0  0  0  0  0
   63.7220    1.3770  -43.0560 N   0  0  0  0  0  0  0  0  0  0  0  0
   62.7130    2.2720  -43.5970 C   0  0  2  0  0  0  0  0  0  0  0  0
   63.4060    3.3090  -44.4580 C   0  0  0  0  0  0  0  0  0  0  0  0
   64.5310    3.7250  -44.1590 O   0  0  0  0  0  0  0  0  0  0  0  0
   61.9220    3.0060  -42.4920 C   0  0  0  0  0  0  0  0  0  0  0  0
   60.8360    2.1840  -41.8720 C   0  0  0  0  0  0  0  0  0  0  0  0
   59.7170    1.8900  -42.8500 C   0  0  0  0  0  0  0  0  0  0  0  0
   59.0940    0.8340  -42.7990 O   0  0  0  0  0  0  0  0  0  0  0  0
   59.4770    2.8250  -43.7660 N   0  0  0  0  0  0  0  0  0  0  0  0
   62.7170    3.7380  -45.5110 N   0  0  0  0  0  0  0  0  0  0  0  0
   63.2310    4.7640  -46.4030 C   0  0  2  0  0  0  0  0  0  0  0  0
   62.8820    6.1630  -45.9070 C   0  0  0  0  0  0  0  0  0  0  0  0
   61.7660    6.4120  -45.4570 O   0  0  0  0  0  0  0  0  0  0  0  0
   62.6700    4.5720  -47.8110 C   0  0  0  0  0  0  0  0  0  0  0  0
   63.1740    5.5910  -48.6470 O   0  0  0  0  0  0  0  0  0  0  0  0
   63.8500    7.0800  -46.0010 N   0  0  0  0  0  0  0  0  0  0  0  0
   63.5790    8.4940  -45.7290 C   0  0  2  0  0  0  0  0  0  0  0  0
   62.5950    9.1080  -46.7300 C   0  0  0  0  0  0  0  0  0  0  0  0
   61.7930    9.9750  -46.3650 O   0  0  0  0  0  0  0  0  0  0  0  0
   64.8800    9.2820  -45.7700 C   0  0  0  0  0  0  0  0  0  0  0  0
   65.7140    9.2020  -44.5030 C   0  0  0  0  0  0  0  0  0  0  0  0
   65.3170    9.8630  -43.3400 C   0  0  0  0  0  0  0  0  0  0  0  0
   66.9140    8.4920  -44.4900 C   0  0  0  0  0  0  0  0  0  0  0  0
   66.0970    9.8130  -42.1860 C   0  0  0  0  0  0  0  0  0  0  0  0
   67.6950    8.4230  -43.3400 C   0  0  0  0  0  0  0  0  0  0  0  0
   67.2840    9.0910  -42.1970 C   0  0  0  0  0  0  0  0  0  0  0  0
   68.0650    9.0430  -41.0690 O   0  0  0  0  0  0  0  0  0  0  0  0
   62.6870    8.7320  -48.0030 N   0  0  0  0  0  0  0  0  0  0  0  0
   61.8040    9.3160  -49.0110 C   0  0  0  0  0  0  0  0  0  0  0  0
   61.9710   10.8030  -49.2600 C   0  0  0  0  0  0  0  0  0  0  0  0
   60.9790   11.4950  -49.5240 O   0  0  0  0  0  0  0  0  0  0  0  0
   63.2060   11.3060  -49.2240 N   0  0  0  0  0  0  0  0  0  0  0  0
   63.4760   12.7350  -49.3790 C   0  0  2  0  0  0  0  0  0  0  0  0
   62.8460   13.3220  -50.6460 C   0  0  0  0  0  0  0  0  0  0  0  0
   63.0930   12.8420  -51.7550 O   0  0  0  0  0  0  0  0  0  0  0  0
   64.9920   12.9660  -49.4250 C   0  0  0  0  0  0  0  0  0  0  0  0
   65.7120   12.6030  -48.1450 C   0  0  0  0  0  0  0  0  0  0  0  0
   65.4090   13.2520  -46.9590 C   0  0  0  0  0  0  0  0  0  0  0  0
   66.7000   11.6270  -48.1400 C   0  0  0  0  0  0  0  0  0  0  0  0
   66.0670   12.9240  -45.7720 C   0  0  0  0  0  0  0  0  0  0  0  0
   67.3630   11.2920  -46.9630 C   0  0  0  0  0  0  0  0  0  0  0  0
   67.0470   11.9480  -45.7780 C   0  0  0  0  0  0  0  0  0  0  0  0
   62.0610   14.3920  -50.4800 N   0  0  0  0  0  0  0  0  0  0  0  0
   61.5680   15.2140  -51.5710 C   0  0  2  0  0  0  0  0  0  0  0  0
   62.0850   16.6320  -51.4170 C   0  0  0  0  0  0  0  0  0  0  0  0
   62.1750   17.1400  -50.2920 O   0  0  0  0  0  0  0  0  0  0  0  0
   60.0390   15.2780  -51.6110 C   0  0  0  0  0  0  0  0  0  0  0  0
   59.3420   13.9770  -51.7650 C   0  0  0  0  0  0  0  0  0  0  0  0
   57.9180   14.0820  -51.2680 C   0  0  0  0  0  0  0  0  0  0  0  0
   57.6730   14.2590  -50.0660 O   0  0  0  0  0  0  0  0  0  0  0  0
   56.9710   14.0070  -52.1900 N   0  0  0  0  0  0  0  0  0  0  0  0
   60.7450   19.4620  -51.6770 N   0  0  0  0  0  0  0  0  0  0  0  0
   59.8110   20.3810  -51.0290 C   0  0  2  0  0  0  0  0  0  0  0  0
   59.7020   20.1690  -49.5150 C   0  0  0  0  0  0  0  0  0  0  0  0
   58.9820   20.9180  -48.8530 O   0  0  0  0  0  0  0  0  0  0  0  0
   58.4170   20.2390  -51.6440 C   0  0  2  0  0  0  0  0  0  0  0  0
   58.0970   18.8460  -51.7510 O   0  0  0  0  0  0  0  0  0  0  0  0
   58.3420   20.8940  -53.0100 C   0  0  0  0  0  0  0  0  0  0  0  0
   60.3730   19.1700  -48.9620 N   0  0  0  0  0  0  0  0  0  0  0  0
   60.3010   18.9120  -47.5260 C   0  0  2  0  0  0  0  0  0  0  0  0
   60.8190   20.1020  -46.7310 C   0  0  0  0  0  0  0  0  0  0  0  0
   61.6970   20.8420  -47.1830 O   0  0  0  0  0  0  0  0  0  0  0  0
   61.1360   17.6860  -47.1730 C   0  0  0  0  0  0  0  0  0  0  0  0
   60.4710   16.3920  -47.5530 C   0  0  0  0  0  0  0  0  0  0  0  0
   59.2700   16.3510  -47.8080 O   0  0  0  0  0  0  0  0  0  0  0  0
   61.2470   15.3120  -47.5560 N   0  0  0  0  0  0  0  0  0  0  0  0
   60.2840   20.2740  -45.5200 N   0  0  0  0  0  0  0  0  0  0  0  0
   60.8980   21.1960  -44.5790 C   0  0  0  0  0  0  0  0  0  0  0  0
   62.3500   20.8360  -44.3150 C   0  0  0  0  0  0  0  0  0  0  0  0
   62.7570   19.6770  -44.4210 O   0  0  0  0  0  0  0  0  0  0  0  0
   63.1480   21.8610  -43.9990 N   0  0  0  0  0  0  0  0  0  0  0  0
   64.5920   21.6830  -43.8350 C   0  0  2  0  0  0  0  0  0  0  0  0
   64.8980   20.5750  -42.8400 C   0  0  0  0  0  0  0  0  0  0  0  0
   65.8290   19.7750  -43.0420 O   0  0  0  0  0  0  0  0  0  0  0  0
   65.2520   23.0140  -43.4240 C   0  0  0  0  0  0  0  0  0  0  0  0
   66.6850   22.7900  -43.0000 C   0  0  0  0  0  0  0  0  0  0  0  0
   65.2490   23.9600  -44.6030 C   0  0  0  0  0  0  0  0  0  0  0  0
   64.1110   20.4860  -41.7630 N   0  0  0  0  0  0  0  0  0  0  0  0
   64.3350   19.4210  -40.7940 C   0  0  0  0  0  0  0  0  0  0  0  0
   64.1200   18.0400  -41.3660 C   0  0  0  0  0  0  0  0  0  0  0  0
   64.5540   17.0520  -40.7650 O   0  0  0  0  0  0  0  0  0  0  0  0
   63.4590   17.9480  -42.5200 N   0  0  0  0  0  0  0  0  0  0  0  0
   63.1910   16.6800  -43.1810 C   0  0  2  0  0  0  0  0  0  0  0  0
   63.9840   16.5260  -44.4760 C   0  0  0  0  0  0  0  0  0  0  0  0
   63.7820   15.5580  -45.2100 O   0  0  0  0  0  0  0  0  0  0  0  0
   61.6870   16.5450  -43.4280 C   0  0  0  0  0  0  0  0  0  0  0  0
   60.9580   16.2660  -42.1350 C   0  0  0  0  0  0  0  0  0  0  0  0
   60.7280   17.2830  -41.2120 C   0  0  0  0  0  0  0  0  0  0  0  0
   60.5580   14.9710  -41.8120 C   0  0  0  0  0  0  0  0  0  0  0  0
   60.0950   17.0180  -40.0000 C   0  0  0  0  0  0  0  0  0  0  0  0
   59.9160   14.6970  -40.6350 C   0  0  0  0  0  0  0  0  0  0  0  0
   59.6940   15.7190  -39.7250 C   0  0  0  0  0  0  0  0  0  0  0  0
   59.0660   15.4220  -38.5460 O   0  0  0  0  0  0  0  0  0  0  0  0
  2  1  1  1
  3  2  1  0
  4  3  2  0
  5  2  1  0
  6  5  1  0
  7  6  1  0
  8  7  1  0
  9  8  1  0
 10  9  1  0
 11  9  2  0
 13 12  1  6
 14 13  1  0
 15 14  2  0
 16 13  1  0
 17 16  1  0
 18 17  1  0
 19 18  2  0
 20 18  1  0
 22 21  1  6
 23 22  1  0
 24 23  2  0
 25 22  1  0
 26 25  1  0
 27 26  2  0
 28 26  1  0
 29 27  1  0
 30 28  2  0
 31 30  1  0
 31 29  2  0
 32 31  1  0
 34 33  1  6
 35 34  1  0
 36 35  2  0
 37 34  1  0
 38 37  1  0
 39 38  2  0
 40 38  1  0
 41 39  1  0
 42 40  2  0
 43 42  1  0
 43 41  2  0
 44 43  1  0
 46 45  1  1
 47 46  1  0
 48 47  2  0
 49 46  1  0
 50 49  1  0
 51 50  1  0
 52 51  2  0
 53 51  1  0
 54 47  1  0
 55 54  1  0
 56 55  1  0
 57 56  2  0
 55 58  1  6
 59 58  1  0
 60 56  1  0
 61 60  1  0
 62 61  1  0
 63 62  2  0
 61 64  1  6
 65 64  1  0
 66 65  2  0
 67 65  1  0
 68 66  1  0
 69 67  2  0
 70 69  1  0
 70 68  2  0
 71 70  1  0
 72 62  1  0
 73 72  1  0
 74 73  1  0
 75 74  2  0
 76 74  1  0
 77 76  1  0
 78 77  1  0
 79 78  2  0
 77 80  1  6
 81 80  1  0
 82 81  2  0
 83 81  1  0
 84 82  1  0
 85 83  2  0
 86 85  1  0
 86 84  2  0
 87 78  1  0
 88 87  1  0
 89 88  1  0
 90 89  2  0
 88 91  1  1
 92 91  1  0
 93 92  1  0
 94 93  2  0
 95 93  1  0
 97 96  1  6
 98 97  1  0
 99 98  2  0
100 97  1  0
101100  1  0
100102  1  6
103 98  1  0
104103  1  0
105104  1  0
106105  2  0
104107  1  6
108107  1  0
109108  2  0
110108  1  0
111105  1  0
112111  1  0
113112  1  0
114113  2  0
115113  1  0
116115  1  1
117116  1  0
118117  2  0
119116  1  0
120119  1  0
121119  1  0
122117  1  0
123122  1  0
124123  1  0
125124  2  0
126124  1  0
127126  1  0
128127  1  0
129128  2  0
127130  1  6
131130  1  0
132131  2  0
133131  1  0
134132  1  0
135133  2  0
136135  1  0
136134  2  0
137136  1  0
M  END
$$$$
