
     RDKit          3D

132127  0  0  0  0  0  0  0  0999 V2000
   76.7720  110.0790   98.8450 N   0  0  0  0  0  0  0  0  0  0  0  0
   77.6190  109.3160   97.9490 C   0  0  2  0  0  0  0  0  0  0  0  0
   76.9140  108.9580   96.6500 C   0  0  0  0  0  0  0  0  0  0  0  0
   77.5760  108.5090   95.7110 O   0  0  0  0  0  0  0  0  0  0  0  0
   78.1130  108.0600   98.6570 C   0  0  0  0  0  0  0  0  0  0  0  0
   79.0530  108.3690   99.7980 C   0  0  0  0  0  0  0  0  0  0  0  0
   79.5260  107.1310  100.5050 C   0  0  0  0  0  0  0  0  0  0  0  0
   79.0170  106.0440  100.1780 O   0  0  0  0  0  0  0  0  0  0  0  0
   80.3940  107.2370  101.3950 O   0  0  0  0  0  0  0  0  0  0  0  0
   75.5930  109.1260   96.5820 N   0  0  0  0  0  0  0  0  0  0  0  0
   74.8540  109.0710   95.3310 C   0  0  2  0  0  0  0  0  0  0  0  0
   74.0590  110.3460   95.0810 C   0  0  0  0  0  0  0  0  0  0  0  0
   74.0790  110.8800   93.9680 O   0  0  0  0  0  0  0  0  0  0  0  0
   73.9430  107.8310   95.2610 C   0  0  0  0  0  0  0  0  0  0  0  0
   74.7740  106.6000   95.2660 C   0  0  0  0  0  0  0  0  0  0  0  0
   73.0500  107.7800   96.4650 C   0  0  0  0  0  0  0  0  0  0  0  0
   76.6050  112.0460   93.5760 N   0  0  0  0  0  0  0  0  0  0  0  0
   77.6970  111.3020   92.9680 C   0  0  2  0  0  0  0  0  0  0  0  0
   78.0010  111.7940   91.5620 C   0  0  0  0  0  0  0  0  0  0  0  0
   77.1330  112.3080   90.8560 O   0  0  0  0  0  0  0  0  0  0  0  0
   77.3800  109.8160   92.9340 C   0  0  0  0  0  0  0  0  0  0  0  0
   79.2590  111.6120   91.1580 N   0  0  0  0  0  0  0  0  0  0  0  0
   79.7690  112.2880   89.9730 C   0  0  2  0  0  0  0  0  0  0  0  0
   79.1180  111.7520   88.7090 C   0  0  0  0  0  0  0  0  0  0  0  0
   78.6910  112.5220   87.8460 O   0  0  0  0  0  0  0  0  0  0  0  0
   81.2830  112.1380   89.8970 C   0  0  2  0  0  0  0  0  0  0  0  0
   81.8600  112.5320   91.1440 O   0  0  0  0  0  0  0  0  0  0  0  0
   81.8300  113.0380   88.8240 C   0  0  0  0  0  0  0  0  0  0  0  0
   79.0330  110.4400   88.5780 N   0  0  0  0  0  0  0  0  0  0  0  0
   78.3590  109.8380   87.4440 C   0  0  2  0  0  0  0  0  0  0  0  0
   77.3630  108.8240   87.9720 C   0  0  0  0  0  0  0  0  0  0  0  0
   77.5620  108.2240   89.0320 O   0  0  0  0  0  0  0  0  0  0  0  0
   79.3120  109.1230   86.4870 C   0  0  0  0  0  0  0  0  0  0  0  0
   80.2040  110.0000   85.6520 C   0  0  0  0  0  0  0  0  0  0  0  0
   81.3480  110.4740   86.5120 C   0  0  0  0  0  0  0  0  0  0  0  0
   82.3670  111.2290   85.8010 N   0  0  0  0  0  0  0  0  0  0  0  0
   83.4410  110.6830   85.2520 C   0  0  0  0  0  0  0  0  0  0  0  0
   84.3260  111.4440   84.6320 N   0  0  0  0  0  0  0  0  0  0  0  0
   83.6330  109.3790   85.3340 N   0  0  0  0  0  0  0  0  0  0  0  0
   76.2920  108.6330   87.2290 N   0  0  0  0  0  0  0  0  0  0  0  0
   75.3590  107.5670   87.5200 C   0  0  2  0  0  0  0  0  0  0  0  0
   75.3870  106.5310   86.4120 C   0  0  0  0  0  0  0  0  0  0  0  0
   75.8130  106.7960   85.2920 O   0  0  0  0  0  0  0  0  0  0  0  0
   73.9460  108.1040   87.7050 C   0  0  0  0  0  0  0  0  0  0  0  0
   73.7010  108.7160   89.0420 C   0  0  0  0  0  0  0  0  0  0  0  0
   74.5810  108.5320   90.0730 C   0  0  0  0  0  0  0  0  0  0  0  0
   72.5560  109.4270   89.2810 C   0  0  0  0  0  0  0  0  0  0  0  0
   74.3250  109.0760   91.3040 C   0  0  0  0  0  0  0  0  0  0  0  0
   72.3120  109.9640   90.5060 C   0  0  0  0  0  0  0  0  0  0  0  0
   73.1930  109.7920   91.5090 C   0  0  0  0  0  0  0  0  0  0  0  0
   74.9370  105.3350   86.7560 N   0  0  0  0  0  0  0  0  0  0  0  0
   74.9750  104.2130   85.8430 C   0  0  2  0  0  0  0  0  0  0  0  0
   74.0200  104.4280   84.6850 C   0  0  0  0  0  0  0  0  0  0  0  0
   73.0670  105.1970   84.7740 O   0  0  0  0  0  0  0  0  0  0  0  0
   74.5930  102.9340   86.5740 C   0  0  0  0  0  0  0  0  0  0  0  0
   74.2770  103.7370   83.5870 N   0  0  0  0  0  0  0  0  0  0  0  0
   73.2110  103.5360   82.6250 C   0  0  2  0  0  0  0  0  0  0  0  0
   72.0860  102.7880   83.3150 C   0  0  0  0  0  0  0  0  0  0  0  0
   72.3290  101.9210   84.1580 O   0  0  0  0  0  0  0  0  0  0  0  0
   73.7040  102.7430   81.4280 C   0  0  0  0  0  0  0  0  0  0  0  0
   74.6840  103.4560   80.7190 O   0  0  0  0  0  0  0  0  0  0  0  0
   72.1180   98.9610   83.3350 N   0  0  0  0  0  0  0  0  0  0  0  0
   72.9860   98.3830   84.3410 C   0  0  2  0  0  0  0  0  0  0  0  0
   72.8620   99.0970   85.6660 C   0  0  0  0  0  0  0  0  0  0  0  0
   73.8120   99.0810   86.4470 O   0  0  0  0  0  0  0  0  0  0  0  0
   74.4370   98.4100   83.8730 C   0  0  0  0  0  0  0  0  0  0  0  0
   72.9020  100.9990   88.9780 N   0  0  0  0  0  0  0  0  0  0  0  0
   73.6150  100.5840   90.1710 C   0  0  2  0  0  0  0  0  0  0  0  0
   72.6190  100.2530   91.2690 C   0  0  0  0  0  0  0  0  0  0  0  0
   71.5430  100.8420   91.3500 O   0  0  0  0  0  0  0  0  0  0  0  0
   74.5590  101.6820   90.6350 C   0  0  0  0  0  0  0  0  0  0  0  0
   75.3420  101.2870   91.8530 C   0  0  0  0  0  0  0  0  0  0  0  0
   76.4460  100.7590   91.7490 O   0  0  0  0  0  0  0  0  0  0  0  0
   74.7750  101.5290   93.0240 N   0  0  0  0  0  0  0  0  0  0  0  0
   73.0050  100.4160   94.9880 N   0  0  0  0  0  0  0  0  0  0  0  0
   73.8210  100.6940   96.1520 C   0  0  2  0  0  0  0  0  0  0  0  0
   73.0320  100.2000   97.3520 C   0  0  0  0  0  0  0  0  0  0  0  0
   71.9670  100.7310   97.6650 O   0  0  0  0  0  0  0  0  0  0  0  0
   74.1360  102.1830   96.2340 C   0  0  0  0  0  0  0  0  0  0  0  0
   74.6790  102.7090   97.5650 C   0  0  0  0  0  0  0  0  0  0  0  0
   75.5510  101.7050   98.3180 C   0  0  0  0  0  0  0  0  0  0  0  0
   76.4260  102.3740   99.3600 C   0  0  0  0  0  0  0  0  0  0  0  0
   77.3030  101.3780  100.0190 N   0  0  0  0  0  0  0  0  0  0  0  0
   70.0350  103.3020   91.4220 N   0  0  0  0  0  0  0  0  0  0  0  0
   70.3250  104.6300   90.9010 C   0  0  2  0  0  0  0  0  0  0  0  0
   70.6890  104.5520   89.4330 C   0  0  0  0  0  0  0  0  0  0  0  0
   71.3080  103.5760   88.9960 O   0  0  0  0  0  0  0  0  0  0  0  0
   71.4510  105.2950   91.6890 C   0  0  0  0  0  0  0  0  0  0  0  0
   72.6360  104.5370   91.6280 O   0  0  0  0  0  0  0  0  0  0  0  0
   78.6380  108.1560   75.4770 N   0  0  0  0  0  0  0  0  0  0  0  0
   78.3070  106.7510   75.5820 C   0  0  2  0  0  0  0  0  0  0  0  0
   78.3760  106.2610   77.0020 C   0  0  0  0  0  0  0  0  0  0  0  0
   78.4050  105.0520   77.2230 O   0  0  0  0  0  0  0  0  0  0  0  0
   79.2290  105.9200   74.7060 C   0  0  0  0  0  0  0  0  0  0  0  0
   78.9470  106.0610   73.2400 C   0  0  0  0  0  0  0  0  0  0  0  0
   79.3820  107.1700   72.5390 C   0  0  0  0  0  0  0  0  0  0  0  0
   78.2560  105.0820   72.5550 C   0  0  0  0  0  0  0  0  0  0  0  0
   79.1390  107.3010   71.1990 C   0  0  0  0  0  0  0  0  0  0  0  0
   78.0090  105.2010   71.2150 C   0  0  0  0  0  0  0  0  0  0  0  0
   78.4530  106.3150   70.5370 C   0  0  0  0  0  0  0  0  0  0  0  0
   78.2110  106.4440   69.1880 O   0  0  0  0  0  0  0  0  0  0  0  0
   78.4280  107.1700   77.9670 N   0  0  0  0  0  0  0  0  0  0  0  0
   78.3450  106.7530   79.3530 C   0  0  2  0  0  0  0  0  0  0  0  0
   76.9880  106.1530   79.6750 C   0  0  0  0  0  0  0  0  0  0  0  0
   76.8810  105.3530   80.6080 O   0  0  0  0  0  0  0  0  0  0  0  0
   78.6160  107.9330   80.2760 C   0  0  0  0  0  0  0  0  0  0  0  0
   80.0530  108.3620   80.2580 C   0  0  0  0  0  0  0  0  0  0  0  0
   80.9310  107.5830   79.9190 O   0  0  0  0  0  0  0  0  0  0  0  0
   80.3050  109.6090   80.6230 N   0  0  0  0  0  0  0  0  0  0  0  0
   75.9410  106.5230   78.9370 N   0  0  0  0  0  0  0  0  0  0  0  0
   74.5690  106.2420   79.3470 C   0  0  2  0  0  0  0  0  0  0  0  0
   73.8450  105.3810   78.3230 C   0  0  0  0  0  0  0  0  0  0  0  0
   73.9210  105.6460   77.1210 O   0  0  0  0  0  0  0  0  0  0  0  0
   73.8300  107.5440   79.5950 C   0  0  0  0  0  0  0  0  0  0  0  0
   74.3170  108.1890   80.8590 C   0  0  0  0  0  0  0  0  0  0  0  0
   75.1340  107.4930   81.7220 C   0  0  0  0  0  0  0  0  0  0  0  0
   73.9650  109.4780   81.2000 C   0  0  0  0  0  0  0  0  0  0  0  0
   75.6010  108.0480   82.8580 C   0  0  0  0  0  0  0  0  0  0  0  0
   74.4250  110.0480   82.3680 C   0  0  0  0  0  0  0  0  0  0  0  0
   75.2430  109.3150   83.1950 C   0  0  0  0  0  0  0  0  0  0  0  0
   75.7260  109.8460   84.3650 O   0  0  0  0  0  0  0  0  0  0  0  0
   68.4300   92.7570   87.1800 N   0  0  0  0  0  0  0  0  0  0  0  0
   69.3800   93.5970   86.4600 C   0  0  2  0  0  0  0  0  0  0  0  0
   70.0470   92.7900   85.3560 C   0  0  0  0  0  0  0  0  0  0  0  0
   70.8110   91.8610   85.6340 O   0  0  0  0  0  0  0  0  0  0  0  0
   70.4160   94.1530   87.4280 C   0  0  0  0  0  0  0  0  0  0  0  0
   71.5380   94.8740   86.7640 C   0  0  0  0  0  0  0  0  0  0  0  0
   71.9830   96.0440   87.5980 C   0  0  0  0  0  0  0  0  0  0  0  0
   72.8360   95.6470   88.7120 N   0  0  0  0  0  0  0  0  0  0  0  0
   74.1370   95.8930   88.7680 C   0  0  0  0  0  0  0  0  0  0  0  0
   74.8400   95.4990   89.8170 N   0  0  0  0  0  0  0  0  0  0  0  0
   74.7270   96.5390   87.7740 N   0  0  0  0  0  0  0  0  0  0  0  0
  2  1  1  1
  3  2  1  0
  4  3  2  0
  5  2  1  0
  6  5  1  0
  7  6  1  0
  8  7  2  0
  9  7  1  0
 10  3  1  0
 11 10  1  1
 12 11  1  0
 13 12  2  0
 14 11  1  0
 15 14  1  0
 16 14  1  0
 18 17  1  0
 19 18  1  0
 20 19  2  0
 18 21  1  6
 22 19  1  0
 23 22  1  1
 24 23  1  0
 25 24  2  0
 26 23  1  0
 27 26  1  0
 26 28  1  6
 29 24  1  0
 30 29  1  0
 31 30  1  0
 32 31  2  0
 30 33  1  6
 34 33  1  0
 35 34  1  0
 36 35  1  0
 37 36  1  0
 38 37  1  0
 39 37  2  0
 40 31  1  0
 41 40  1  0
 42 41  1  0
 43 42  2  0
 41 44  1  6
 45 44  1  0
 46 45  2  0
 47 45  1  0
 48 46  1  0
 49 47  2  0
 50 49  1  0
 50 48  2  0
 51 42  1  0
 52 51  1  0
 53 52  1  0
 54 53  2  0
 52 55  1  1
 56 53  1  0
 57 56  1  0
 58 57  1  0
 59 58  2  0
 57 60  1  6
 61 60  1  0
 63 62  1  0
 64 63  1  0
 65 64  2  0
 63 66  1  6
 68 67  1  6
 69 68  1  0
 70 69  2  0
 71 68  1  0
 72 71  1  0
 73 72  2  0
 74 72  1  0
 76 75  1  6
 77 76  1  0
 78 77  2  0
 79 76  1  0
 80 79  1  0
 81 80  1  0
 82 81  1  0
 83 82  1  0
 85 84  1  1
 86 85  1  0
 87 86  2  0
 88 85  1  0
 89 88  1  0
 91 90  1  1
 92 91  1  0
 93 92  2  0
 94 91  1  0
 95 94  1  0
 96 95  2  0
 97 95  1  0
 98 96  1  0
 99 97  2  0
100 99  1  0
100 98  2  0
101100  1  0
102 92  1  0
103102  1  0
104103  1  0
105104  2  0
103106  1  1
107106  1  0
108107  2  0
109107  1  0
110104  1  0
111110  1  0
112111  1  0
113112  2  0
111114  1  6
115114  1  0
116115  2  0
117115  1  0
118116  1  0
119117  2  0
120118  2  0
120119  1  0
121120  1  0
123122  1  1
124123  1  0
125124  2  0
126123  1  0
127126  1  0
128127  1  0
129128  1  0
130129  1  0
131130  1  0
132130  2  0
M  END
$$$$
