
     RDKit          3D

 90 90  0  0  0  0  0  0  0  0999 V2000
  -11.4490    4.8170   31.2380 N   0  0  0  0  0  0  0  0  0  0  0  0
  -11.7820    6.0680   31.9720 C   0  0  2  0  0  0  0  0  0  0  0  0
  -11.3120    7.2530   31.1230 C   0  0  0  0  0  0  0  0  0  0  0  0
  -10.2980    7.1700   30.4150 O   0  0  0  0  0  0  0  0  0  0  0  0
  -11.2610    6.0310   33.4160 C   0  0  0  0  0  0  0  0  0  0  0  0
   -9.8230    6.4230   33.5970 C   0  0  0  0  0  0  0  0  0  0  0  0
   -9.4780    7.7430   33.7990 C   0  0  0  0  0  0  0  0  0  0  0  0
   -8.8210    5.4770   33.5480 C   0  0  0  0  0  0  0  0  0  0  0  0
   -8.1490    8.1140   33.9430 C   0  0  0  0  0  0  0  0  0  0  0  0
   -7.4970    5.8520   33.6720 C   0  0  0  0  0  0  0  0  0  0  0  0
   -7.1610    7.1670   33.8820 C   0  0  0  0  0  0  0  0  0  0  0  0
  -16.3220   18.2060   33.7260 N   0  0  0  0  0  0  0  0  0  0  0  0
  -16.0090   18.4290   35.1630 C   0  0  2  0  0  0  0  0  0  0  0  0
  -16.0600   17.0870   35.9010 C   0  0  0  0  0  0  0  0  0  0  0  0
  -15.1300   16.8410   36.6810 O   0  0  0  0  0  0  0  0  0  0  0  0
  -16.8850   19.5420   35.7660 C   0  0  2  0  0  0  0  0  0  0  0  0
  -16.0400   20.6610   36.0370 O   0  0  0  0  0  0  0  0  0  0  0  0
  -17.6090   19.1520   37.0380 C   0  0  0  0  0  0  0  0  0  0  0  0
  -17.0780   16.2560   35.6800 N   0  0  0  0  0  0  0  0  0  0  0  0
  -17.1350   14.9120   36.3090 C   0  0  2  0  0  0  0  0  0  0  0  0
  -16.8350   13.8180   35.2860 C   0  0  0  0  0  0  0  0  0  0  0  0
  -16.4040   14.1160   34.1630 O   0  0  0  0  0  0  0  0  0  0  0  0
  -18.4930   14.6860   36.9650 C   0  0  0  0  0  0  0  0  0  0  0  0
  -19.6170   15.0480   36.0700 C   0  0  0  0  0  0  0  0  0  0  0  0
  -20.2350   16.2820   36.1520 N   0  0  0  0  0  0  0  0  0  0  0  0
  -20.2150   14.3750   35.0630 C   0  0  0  0  0  0  0  0  0  0  0  0
  -21.1890   16.3480   35.2460 C   0  0  0  0  0  0  0  0  0  0  0  0
  -21.1960   15.1870   34.5610 N   0  0  0  0  0  0  0  0  0  0  0  0
  -17.0410   12.5710   35.6990 N   0  0  0  0  0  0  0  0  0  0  0  0
  -16.8990   11.3580   34.8580 C   0  0  2  0  0  0  0  0  0  0  0  0
  -15.4520   11.1840   34.3760 C   0  0  0  0  0  0  0  0  0  0  0  0
  -15.0420   10.0300   34.1220 O   0  0  0  0  0  0  0  0  0  0  0  0
  -17.8520   11.4190   33.6790 C   0  0  0  0  0  0  0  0  0  0  0  0
  -14.7200   12.2930   34.2420 N   0  0  0  0  0  0  0  0  0  0  0  0
  -13.3770   12.3810   33.6350 C   0  0  2  0  0  0  0  0  0  0  0  0
  -12.4830   13.3050   34.4560 C   0  0  0  0  0  0  0  0  0  0  0  0
  -12.9440   14.3000   34.9980 O   0  0  0  0  0  0  0  0  0  0  0  0
  -13.4350   12.9050   32.2060 C   0  0  0  0  0  0  0  0  0  0  0  0
  -14.7870   12.1940   31.2400 S   0  0  0  0  0  0  0  0  0  0  0  0
  -11.2100   12.9620   34.5090 N   0  0  0  0  0  0  0  0  0  0  0  0
  -10.2110   13.6280   35.3780 C   0  0  2  0  0  0  0  0  0  0  0  0
   -9.2810   14.4480   34.5030 C   0  0  0  0  0  0  0  0  0  0  0  0
   -9.5170   14.5540   33.3280 O   0  0  0  0  0  0  0  0  0  0  0  0
   -9.4720   12.5540   36.1860 C   0  0  0  0  0  0  0  0  0  0  0  0
  -10.4490   11.5290   36.7360 C   0  0  0  0  0  0  0  0  0  0  0  0
   -8.4050   11.8690   35.3630 C   0  0  0  0  0  0  0  0  0  0  0  0
   -7.1220    3.3790   29.8510 N   0  0  0  0  0  0  0  0  0  0  0  0
   -7.4040    2.0220   30.3550 C   0  0  2  0  0  0  0  0  0  0  0  0
   -7.0880    1.9410   31.8350 C   0  0  0  0  0  0  0  0  0  0  0  0
   -6.0880    2.4910   32.2610 O   0  0  0  0  0  0  0  0  0  0  0  0
   -6.4710    1.0010   29.7230 C   0  0  2  0  0  0  0  0  0  0  0  0
   -5.1760    1.6010   29.7890 O   0  0  0  0  0  0  0  0  0  0  0  0
   -6.8780    0.6520   28.3110 C   0  0  0  0  0  0  0  0  0  0  0  0
   -7.8960    1.2290   32.6350 N   0  0  0  0  0  0  0  0  0  0  0  0
   -7.6410    1.0680   34.0580 C   0  0  2  0  0  0  0  0  0  0  0  0
   -6.4770    0.1820   34.5060 C   0  0  0  0  0  0  0  0  0  0  0  0
   -5.5600   -0.0700   33.7650 O   0  0  0  0  0  0  0  0  0  0  0  0
   -8.9250    0.3800   34.5340 C   0  0  0  0  0  0  0  0  0  0  0  0
   -9.9400    0.8490   33.5560 C   0  0  0  0  0  0  0  0  0  0  0  0
   -9.2030    0.7060   32.2500 C   0  0  0  0  0  0  0  0  0  0  0  0
   -6.5510   -0.2430   35.7630 N   0  0  0  0  0  0  0  0  0  0  0  0
   -5.5040   -1.0510   36.4080 C   0  0  2  0  0  0  0  0  0  0  0  0
   -5.1940   -2.2720   35.5470 C   0  0  0  0  0  0  0  0  0  0  0  0
   -6.1380   -2.9830   35.2250 O   0  0  0  0  0  0  0  0  0  0  0  0
   -5.9780   -1.4690   37.7650 C   0  0  0  0  0  0  0  0  0  0  0  0
   -3.9240   -2.4910   35.2050 N   0  0  0  0  0  0  0  0  0  0  0  0
   -3.4920   -3.7050   34.4990 C   0  0  0  0  0  0  0  0  0  0  0  0
   -3.5450   -3.5160   33.0030 C   0  0  0  0  0  0  0  0  0  0  0  0
   -2.4990   -3.7280   32.3590 O   0  0  0  0  0  0  0  0  0  0  0  0
   -4.7010   -3.1200   32.4740 N   0  0  0  0  0  0  0  0  0  0  0  0
   -4.9250   -2.9100   31.0220 C   0  0  2  0  0  0  0  0  0  0  0  0
   -4.0010   -1.8290   30.4590 C   0  0  0  0  0  0  0  0  0  0  0  0
   -3.6770   -0.8750   31.1570 O   0  0  0  0  0  0  0  0  0  0  0  0
   -6.3840   -2.5420   30.8140 C   0  0  0  0  0  0  0  0  0  0  0  0
   -7.3130   -3.5650   31.3960 C   0  0  0  0  0  0  0  0  0  0  0  0
   -8.1820   -3.2490   32.4180 C   0  0  0  0  0  0  0  0  0  0  0  0
   -7.3350   -4.8480   30.9020 C   0  0  0  0  0  0  0  0  0  0  0  0
   -9.0520   -4.1870   32.9360 C   0  0  0  0  0  0  0  0  0  0  0  0
   -8.1860   -5.8080   31.4210 C   0  0  0  0  0  0  0  0  0  0  0  0
   -9.0430   -5.4750   32.4450 C   0  0  0  0  0  0  0  0  0  0  0  0
   -9.8840   -6.4050   32.9700 O   0  0  0  0  0  0  0  0  0  0  0  0
   -1.2370    4.8210   28.1430 N   0  0  0  0  0  0  0  0  0  0  0  0
   -2.2920    4.6600   29.1680 C   0  0  2  0  0  0  0  0  0  0  0  0
   -3.5210    5.3930   28.6660 C   0  0  0  0  0  0  0  0  0  0  0  0
   -4.6300    4.8690   28.8830 O   0  0  0  0  0  0  0  0  0  0  0  0
   -1.8330    5.1780   30.5220 C   0  0  0  0  0  0  0  0  0  0  0  0
   -0.9450    4.1920   31.2720 C   0  0  0  0  0  0  0  0  0  0  0  0
   -0.3400    4.7780   32.5290 C   0  0  0  0  0  0  0  0  0  0  0  0
    0.8610    4.6940   32.7760 O   0  0  0  0  0  0  0  0  0  0  0  0
   -1.1800    5.3700   33.3580 N   0  0  0  0  0  0  0  0  0  0  0  0
  2  1  1  6
  3  2  1  0
  4  3  2  0
  5  2  1  0
  6  5  1  0
  7  6  2  0
  8  6  1  0
  9  7  1  0
 10  8  2  0
 11 10  1  0
 11  9  2  0
 13 12  1  6
 14 13  1  0
 15 14  2  0
 16 13  1  0
 17 16  1  0
 16 18  1  1
 19 14  1  0
 20 19  1  0
 21 20  1  0
 22 21  2  0
 20 23  1  6
 24 23  1  0
 25 24  1  0
 26 24  2  0
 27 25  2  0
 28 27  1  0
 28 26  1  0
 29 21  1  0
 30 29  1  0
 31 30  1  0
 32 31  2  0
 30 33  1  6
 34 31  1  0
 35 34  1  0
 36 35  1  0
 37 36  2  0
 35 38  1  6
 39 38  1  0
 40 36  1  0
 41 40  1  6
 42 41  1  0
 43 42  2  0
 44 41  1  0
 45 44  1  0
 46 44  1  0
 48 47  1  6
 49 48  1  0
 50 49  2  0
 51 48  1  0
 52 51  1  0
 51 53  1  6
 54 49  1  0
 55 54  1  0
 55 56  1  6
 57 56  2  0
 58 55  1  0
 59 58  1  0
 60 54  1  0
 60 59  1  0
 61 56  1  0
 62 61  1  0
 63 62  1  0
 64 63  2  0
 62 65  1  1
 66 63  1  0
 67 66  1  0
 68 67  1  0
 69 68  2  0
 70 68  1  0
 71 70  1  0
 72 71  1  0
 73 72  2  0
 71 74  1  1
 75 74  1  0
 76 75  2  0
 77 75  1  0
 78 76  1  0
 79 77  2  0
 80 79  1  0
 80 78  2  0
 81 80  1  0
 83 82  1  6
 84 83  1  0
 85 84  2  0
 86 83  1  0
 87 86  1  0
 88 87  1  0
 89 88  2  0
 90 88  1  0
M  END
$$$$
