
     RDKit          3D

107107  0  0  0  0  0  0  0  0999 V2000
  206.8970  171.6230  132.5970 N   0  0  0  0  0  0  0  0  0  0  0  0
  208.2040  171.6790  131.9600 C   0  0  2  0  0  0  0  0  0  0  0  0
  209.0360  172.7960  132.5800 C   0  0  0  0  0  0  0  0  0  0  0  0
  208.5140  173.6880  133.2540 O   0  0  0  0  0  0  0  0  0  0  0  0
  208.0730  171.8810  130.4470 C   0  0  0  0  0  0  0  0  0  0  0  0
  207.4690  173.2050  130.0320 C   0  0  0  0  0  0  0  0  0  0  0  0
  207.1290  173.2040  128.5510 C   0  0  0  0  0  0  0  0  0  0  0  0
  206.8790  174.5480  128.0450 N   0  0  0  0  0  0  0  0  0  0  0  0
  207.8180  175.3510  127.5640 C   0  0  0  0  0  0  0  0  0  0  0  0
  209.0860  174.9780  127.5110 N   0  0  0  0  0  0  0  0  0  0  0  0
  207.4760  176.5600  127.1260 N   0  0  0  0  0  0  0  0  0  0  0  0
  198.1420  169.5870  129.9110 N   0  0  0  0  0  0  0  0  0  0  0  0
  198.0100  170.9650  130.3600 C   0  0  2  0  0  0  0  0  0  0  0  0
  196.8020  171.5910  129.6800 C   0  0  0  0  0  0  0  0  0  0  0  0
  196.4760  171.2620  128.5360 O   0  0  0  0  0  0  0  0  0  0  0  0
  199.2720  171.7910  130.0650 C   0  0  0  0  0  0  0  0  0  0  0  0
  199.6740  171.8250  128.6060 C   0  0  0  0  0  0  0  0  0  0  0  0
  199.1820  172.8050  127.7540 C   0  0  0  0  0  0  0  0  0  0  0  0
  200.5550  170.8870  128.0850 C   0  0  0  0  0  0  0  0  0  0  0  0
  199.5480  172.8450  126.4240 C   0  0  0  0  0  0  0  0  0  0  0  0
  200.9280  170.9190  126.7540 C   0  0  0  0  0  0  0  0  0  0  0  0
  200.4220  171.9000  125.9290 C   0  0  0  0  0  0  0  0  0  0  0  0
  200.7890  171.9370  124.6030 O   0  0  0  0  0  0  0  0  0  0  0  0
  198.7160  167.4140  125.3950 N   0  0  0  0  0  0  0  0  0  0  0  0
  199.7060  166.5800  126.0620 C   0  0  2  0  0  0  0  0  0  0  0  0
  201.0980  167.1920  125.9650 C   0  0  0  0  0  0  0  0  0  0  0  0
  201.4660  167.7810  124.9450 O   0  0  0  0  0  0  0  0  0  0  0  0
  199.7170  165.1800  125.4470 C   0  0  0  0  0  0  0  0  0  0  0  0
  198.4230  164.6050  125.4510 O   0  0  0  0  0  0  0  0  0  0  0  0
  201.8690  167.0470  127.0390 N   0  0  0  0  0  0  0  0  0  0  0  0
  203.2810  167.4040  127.0110 C   0  0  2  0  0  0  0  0  0  0  0  0
  204.0800  166.3870  126.2070 C   0  0  0  0  0  0  0  0  0  0  0  0
  203.8130  165.1830  126.2570 O   0  0  0  0  0  0  0  0  0  0  0  0
  203.8450  167.4900  128.4280 C   0  0  0  0  0  0  0  0  0  0  0  0
  203.4640  168.7380  129.1850 C   0  0  0  0  0  0  0  0  0  0  0  0
  204.0730  169.9540  128.9050 C   0  0  0  0  0  0  0  0  0  0  0  0
  202.5130  168.6990  130.1950 C   0  0  0  0  0  0  0  0  0  0  0  0
  203.7350  171.0980  129.5990 C   0  0  0  0  0  0  0  0  0  0  0  0
  202.1690  169.8370  130.8960 C   0  0  0  0  0  0  0  0  0  0  0  0
  202.7830  171.0340  130.5930 C   0  0  0  0  0  0  0  0  0  0  0  0
  202.4420  172.1690  131.2880 O   0  0  0  0  0  0  0  0  0  0  0  0
  205.0640  166.8770  125.4580 N   0  0  0  0  0  0  0  0  0  0  0  0
  206.0060  165.9860  124.8110 C   0  0  0  0  0  0  0  0  0  0  0  0
  207.2870  165.8410  125.6080 C   0  0  0  0  0  0  0  0  0  0  0  0
  208.1720  166.6990  125.5360 O   0  0  0  0  0  0  0  0  0  0  0  0
  207.3990  164.7580  126.3740 N   0  0  0  0  0  0  0  0  0  0  0  0
  208.5240  164.5320  127.2760 C   0  0  2  0  0  0  0  0  0  0  0  0
  209.3720  163.3830  126.7430 C   0  0  0  0  0  0  0  0  0  0  0  0
  208.9720  162.2160  126.8260 O   0  0  0  0  0  0  0  0  0  0  0  0
  208.0460  164.2480  128.6990 C   0  0  0  0  0  0  0  0  0  0  0  0
  207.5300  165.4610  129.4190 C   0  0  0  0  0  0  0  0  0  0  0  0
  208.1450  166.6930  129.2580 C   0  0  0  0  0  0  0  0  0  0  0  0
  206.4440  165.3680  130.2730 C   0  0  0  0  0  0  0  0  0  0  0  0
  207.6780  167.8100  129.9240 C   0  0  0  0  0  0  0  0  0  0  0  0
  205.9740  166.4810  130.9440 C   0  0  0  0  0  0  0  0  0  0  0  0
  206.5910  167.7040  130.7680 C   0  0  0  0  0  0  0  0  0  0  0  0
  210.5380  163.7190  126.1960 N   0  0  0  0  0  0  0  0  0  0  0  0
  211.5440  162.7660  125.7660 C   0  0  2  0  0  0  0  0  0  0  0  0
  212.8400  163.0000  126.5350 C   0  0  0  0  0  0  0  0  0  0  0  0
  213.1340  164.1340  126.9260 O   0  0  0  0  0  0  0  0  0  0  0  0
  211.8090  162.8840  124.2590 C   0  0  0  0  0  0  0  0  0  0  0  0
  210.5500  162.8850  123.4060 C   0  0  0  0  0  0  0  0  0  0  0  0
  210.8460  163.0470  121.9270 C   0  0  0  0  0  0  0  0  0  0  0  0
  211.8910  162.6150  121.4400 O   0  0  0  0  0  0  0  0  0  0  0  0
  209.9250  163.6750  121.2050 N   0  0  0  0  0  0  0  0  0  0  0  0
  215.7950  163.2260  125.5600 N   0  0  0  0  0  0  0  0  0  0  0  0
  216.6980  164.0900  124.8140 C   0  0  2  0  0  0  0  0  0  0  0  0
  216.2150  165.5340  124.7340 C   0  0  0  0  0  0  0  0  0  0  0  0
  216.9130  166.3690  124.1500 O   0  0  0  0  0  0  0  0  0  0  0  0
  216.9030  163.5400  123.4000 C   0  0  2  0  0  0  0  0  0  0  0  0
  215.6330  163.4220  122.7460 O   0  0  0  0  0  0  0  0  0  0  0  0
  217.5570  162.1690  123.4610 C   0  0  0  0  0  0  0  0  0  0  0  0
  215.0540  165.8470  125.3090 N   0  0  0  0  0  0  0  0  0  0  0  0
  214.5390  167.2110  125.2830 C   0  0  2  0  0  0  0  0  0  0  0  0
  215.4470  168.1550  126.0610 C   0  0  0  0  0  0  0  0  0  0  0  0
  216.1510  167.7530  126.9920 O   0  0  0  0  0  0  0  0  0  0  0  0
  213.1290  167.2610  125.8700 C   0  0  0  0  0  0  0  0  0  0  0  0
  212.0960  166.6410  124.9580 C   0  0  0  0  0  0  0  0  0  0  0  0
  212.4310  166.0300  123.9430 O   0  0  0  0  0  0  0  0  0  0  0  0
  210.8280  166.7730  125.3290 N   0  0  0  0  0  0  0  0  0  0  0  0
  215.4410  169.4240  125.6520 N   0  0  0  0  0  0  0  0  0  0  0  0
  216.1870  170.4280  126.3870 C   0  0  0  0  0  0  0  0  0  0  0  0
  215.6770  170.5820  127.8070 C   0  0  0  0  0  0  0  0  0  0  0  0
  214.5020  170.3490  128.0970 O   0  0  0  0  0  0  0  0  0  0  0  0
  216.5830  170.9990  128.6980 N   0  0  0  0  0  0  0  0  0  0  0  0
  216.2600  171.0620  130.1220 C   0  0  2  0  0  0  0  0  0  0  0  0
  215.0480  171.9500  130.3810 C   0  0  0  0  0  0  0  0  0  0  0  0
  214.2870  171.7110  131.3260 O   0  0  0  0  0  0  0  0  0  0  0  0
  217.4970  171.5210  130.9240 C   0  0  0  0  0  0  0  0  0  0  0  0
  217.8120  172.9900  130.6650 C   0  0  0  0  0  0  0  0  0  0  0  0
  217.2940  171.2620  132.4040 C   0  0  0  0  0  0  0  0  0  0  0  0
  214.8500  172.9860  129.5620 N   0  0  0  0  0  0  0  0  0  0  0  0
  213.6560  173.8040  129.6870 C   0  0  0  0  0  0  0  0  0  0  0  0
  212.3800  173.0490  129.3690 C   0  0  0  0  0  0  0  0  0  0  0  0
  211.3300  173.3170  129.9580 O   0  0  0  0  0  0  0  0  0  0  0  0
  212.4500  172.1130  128.4250 N   0  0  0  0  0  0  0  0  0  0  0  0
  211.3220  171.2870  128.0180 C   0  0  2  0  0  0  0  0  0  0  0  0
  211.2760  169.9470  128.7410 C   0  0  0  0  0  0  0  0  0  0  0  0
  210.3740  169.1450  128.4760 O   0  0  0  0  0  0  0  0  0  0  0  0
  211.3590  171.0720  126.5000 C   0  0  0  0  0  0  0  0  0  0  0  0
  211.0080  172.3160  125.7070 C   0  0  0  0  0  0  0  0  0  0  0  0
  211.9790  173.2530  125.3820 C   0  0  0  0  0  0  0  0  0  0  0  0
  209.7090  172.5470  125.2760 C   0  0  0  0  0  0  0  0  0  0  0  0
  211.6620  174.3900  124.6620 C   0  0  0  0  0  0  0  0  0  0  0  0
  209.3830  173.6850  124.5570 C   0  0  0  0  0  0  0  0  0  0  0  0
  210.3670  174.5990  124.2450 C   0  0  0  0  0  0  0  0  0  0  0  0
  210.0580  175.7310  123.5280 O   0  0  0  0  0  0  0  0  0  0  0  0
  2  1  1  1
  3  2  1  0
  4  3  2  0
  5  2  1  0
  6  5  1  0
  7  6  1  0
  8  7  1  0
  9  8  1  0
 10  9  1  0
 11  9  2  0
 13 12  1  6
 14 13  1  0
 15 14  2  0
 16 13  1  0
 17 16  1  0
 18 17  2  0
 19 17  1  0
 20 18  1  0
 21 19  2  0
 22 21  1  0
 22 20  2  0
 23 22  1  0
 25 24  1  6
 26 25  1  0
 27 26  2  0
 28 25  1  0
 29 28  1  0
 30 26  1  0
 31 30  1  0
 32 31  1  0
 33 32  2  0
 31 34  1  1
 35 34  1  0
 36 35  2  0
 37 35  1  0
 38 36  1  0
 39 37  2  0
 40 38  2  0
 40 39  1  0
 41 40  1  0
 42 32  1  0
 43 42  1  0
 44 43  1  0
 45 44  2  0
 46 44  1  0
 47 46  1  0
 48 47  1  0
 49 48  2  0
 47 50  1  1
 51 50  1  0
 52 51  2  0
 53 51  1  0
 54 52  1  0
 55 53  2  0
 56 55  1  0
 56 54  2  0
 57 48  1  0
 58 57  1  0
 59 58  1  0
 60 59  2  0
 58 61  1  6
 62 61  1  0
 63 62  1  0
 64 63  2  0
 65 63  1  0
 67 66  1  6
 68 67  1  0
 69 68  2  0
 70 67  1  0
 71 70  1  0
 70 72  1  1
 73 68  1  0
 74 73  1  0
 75 74  1  0
 76 75  2  0
 74 77  1  1
 78 77  1  0
 79 78  2  0
 80 78  1  0
 81 75  1  0
 82 81  1  0
 83 82  1  0
 84 83  2  0
 85 83  1  0
 86 85  1  6
 87 86  1  0
 88 87  2  0
 89 86  1  0
 90 89  1  0
 91 89  1  0
 92 87  1  0
 93 92  1  0
 94 93  1  0
 95 94  2  0
 96 94  1  0
 97 96  1  0
 98 97  1  0
 99 98  2  0
 97100  1  6
101100  1  0
102101  2  0
103101  1  0
104102  1  0
105103  2  0
106105  1  0
106104  2  0
107106  1  0
M  END
$$$$
