
     RDKit          3D

145144  0  0  0  0  0  0  0  0999 V2000
  200.3810  180.2860  130.5660 N   0  0  0  0  0  0  0  0  0  0  0  0
  199.4780  179.1480  130.4020 C   0  0  2  0  0  0  0  0  0  0  0  0
  199.2120  178.4530  131.7330 C   0  0  0  0  0  0  0  0  0  0  0  0
  198.0560  178.2630  132.1280 O   0  0  0  0  0  0  0  0  0  0  0  0
  200.0560  178.1680  129.3810 C   0  0  0  0  0  0  0  0  0  0  0  0
  199.3270  178.1600  128.0430 C   0  0  0  0  0  0  0  0  0  0  0  0
  200.1860  177.5470  126.9460 C   0  0  0  0  0  0  0  0  0  0  0  0
  200.6840  176.1650  127.3370 C   0  0  0  0  0  0  0  0  0  0  0  0
  201.5030  175.5410  126.2610 N   0  0  0  0  0  0  0  0  0  0  0  0
  195.5870  179.0190  133.4740 N   0  0  0  0  0  0  0  0  0  0  0  0
  194.6400  177.9600  133.1550 C   0  0  2  0  0  0  0  0  0  0  0  0
  194.8660  176.6610  133.9140 C   0  0  0  0  0  0  0  0  0  0  0  0
  193.9580  175.8250  133.9480 O   0  0  0  0  0  0  0  0  0  0  0  0
  194.6530  177.6670  131.6450 C   0  0  0  0  0  0  0  0  0  0  0  0
  194.2360  178.8420  130.7790 C   0  0  0  0  0  0  0  0  0  0  0  0
  193.5760  179.9360  131.3240 C   0  0  0  0  0  0  0  0  0  0  0  0
  194.4980  178.8540  129.4160 C   0  0  0  0  0  0  0  0  0  0  0  0
  193.1930  181.0080  130.5400 C   0  0  0  0  0  0  0  0  0  0  0  0
  194.1170  179.9220  128.6240 C   0  0  0  0  0  0  0  0  0  0  0  0
  193.4660  180.9950  129.1900 C   0  0  0  0  0  0  0  0  0  0  0  0
  193.0890  182.0560  128.4000 O   0  0  0  0  0  0  0  0  0  0  0  0
  196.1430  172.5020  130.3900 N   0  0  0  0  0  0  0  0  0  0  0  0
  194.9790  173.1870  129.8450 C   0  0  2  0  0  0  0  0  0  0  0  0
  195.4320  174.3010  128.9090 C   0  0  0  0  0  0  0  0  0  0  0  0
  196.1720  175.2030  129.3160 O   0  0  0  0  0  0  0  0  0  0  0  0
  194.1090  173.7450  130.9690 C   0  0  0  0  0  0  0  0  0  0  0  0
  192.8360  174.4200  130.4810 C   0  0  0  0  0  0  0  0  0  0  0  0
  191.9020  174.7470  131.6340 C   0  0  0  0  0  0  0  0  0  0  0  0
  191.4980  173.5570  132.3730 N   0  0  0  0  0  0  0  0  0  0  0  0
  190.5550  172.7130  131.9770 C   0  0  0  0  0  0  0  0  0  0  0  0
  189.8950  172.8960  130.8450 N   0  0  0  0  0  0  0  0  0  0  0  0
  190.2670  171.6590  132.7340 N   0  0  0  0  0  0  0  0  0  0  0  0
  194.9870  174.2340  127.6560 N   0  0  0  0  0  0  0  0  0  0  0  0
  195.3800  175.2000  126.6400 C   0  0  2  0  0  0  0  0  0  0  0  0
  194.3660  176.3180  126.4490 C   0  0  0  0  0  0  0  0  0  0  0  0
  194.7510  177.4260  126.0650 O   0  0  0  0  0  0  0  0  0  0  0  0
  195.6130  174.4890  125.3010 C   0  0  0  0  0  0  0  0  0  0  0  0
  196.0510  175.3430  124.1090 C   0  0  0  0  0  0  0  0  0  0  0  0
  197.3350  176.0850  124.4360 C   0  0  0  0  0  0  0  0  0  0  0  0
  196.2270  174.4840  122.8650 C   0  0  0  0  0  0  0  0  0  0  0  0
  193.0890  176.0710  126.7320 N   0  0  0  0  0  0  0  0  0  0  0  0
  192.0480  177.0740  126.5620 C   0  0  2  0  0  0  0  0  0  0  0  0
  191.1890  177.1540  127.8150 C   0  0  0  0  0  0  0  0  0  0  0  0
  190.9300  176.1380  128.4670 O   0  0  0  0  0  0  0  0  0  0  0  0
  191.1540  176.7420  125.3530 C   0  0  0  0  0  0  0  0  0  0  0  0
  191.8860  176.6950  124.0390 C   0  0  0  0  0  0  0  0  0  0  0  0
  192.1960  177.8630  123.3590 C   0  0  0  0  0  0  0  0  0  0  0  0
  192.2620  175.4810  123.4830 C   0  0  0  0  0  0  0  0  0  0  0  0
  192.8620  177.8210  122.1500 C   0  0  0  0  0  0  0  0  0  0  0  0
  192.9300  175.4320  122.2760 C   0  0  0  0  0  0  0  0  0  0  0  0
  193.2340  176.6040  121.6090 C   0  0  0  0  0  0  0  0  0  0  0  0
  190.7500  178.3670  128.1430 N   0  0  0  0  0  0  0  0  0  0  0  0
  189.8390  178.5900  129.2570 C   0  0  2  0  0  0  0  0  0  0  0  0
  189.2260  179.9740  129.1060 C   0  0  0  0  0  0  0  0  0  0  0  0
  189.8930  180.9050  128.6480 O   0  0  0  0  0  0  0  0  0  0  0  0
  190.5420  178.4630  130.6140 C   0  0  0  0  0  0  0  0  0  0  0  0
  189.5780  178.2940  131.7780 C   0  0  0  0  0  0  0  0  0  0  0  0
  190.3030  178.0250  133.0850 C   0  0  0  0  0  0  0  0  0  0  0  0
  189.3720  177.6780  134.1530 N   0  0  0  0  0  0  0  0  0  0  0  0
  188.7190  178.5610  134.8960 C   0  0  0  0  0  0  0  0  0  0  0  0
  188.8680  179.8630  134.7140 N   0  0  0  0  0  0  0  0  0  0  0  0
  187.8960  178.1270  135.8460 N   0  0  0  0  0  0  0  0  0  0  0  0
  187.9530  180.0980  129.4860 N   0  0  0  0  0  0  0  0  0  0  0  0
  187.2420  181.3590  129.3120 C   0  0  2  0  0  0  0  0  0  0  0  0
  187.7270  182.4470  130.2640 C   0  0  0  0  0  0  0  0  0  0  0  0
  187.4810  183.6300  130.0050 O   0  0  0  0  0  0  0  0  0  0  0  0
  185.7400  181.1390  129.4910 C   0  0  0  0  0  0  0  0  0  0  0  0
  185.1030  180.3420  128.3660 C   0  0  0  0  0  0  0  0  0  0  0  0
  183.5870  180.3520  128.4640 C   0  0  0  0  0  0  0  0  0  0  0  0
  183.1020  179.5200  129.6400 C   0  0  0  0  0  0  0  0  0  0  0  0
  181.6150  179.4590  129.6950 N   0  0  0  0  0  0  0  0  0  0  0  0
  185.9290  173.5260  124.0390 N   0  0  0  0  0  0  0  0  0  0  0  0
  186.0960  174.9650  124.1740 C   0  0  2  0  0  0  0  0  0  0  0  0
  185.5130  175.6870  122.9620 C   0  0  0  0  0  0  0  0  0  0  0  0
  185.8980  175.4100  121.8220 O   0  0  0  0  0  0  0  0  0  0  0  0
  187.5600  175.3300  124.3940 C   0  0  0  0  0  0  0  0  0  0  0  0
  187.7110  176.8120  124.5710 C   0  0  0  0  0  0  0  0  0  0  0  0
  187.4470  177.4010  125.8020 C   0  0  0  0  0  0  0  0  0  0  0  0
  188.1290  177.6210  123.5390 C   0  0  0  0  0  0  0  0  0  0  0  0
  187.5620  178.7560  125.9920 C   0  0  0  0  0  0  0  0  0  0  0  0
  188.2560  178.9720  123.7220 C   0  0  0  0  0  0  0  0  0  0  0  0
  187.9750  179.5450  124.9510 C   0  0  0  0  0  0  0  0  0  0  0  0
  188.0980  180.9060  125.1290 O   0  0  0  0  0  0  0  0  0  0  0  0
  184.5850  176.6120  123.2070 N   0  0  0  0  0  0  0  0  0  0  0  0
  183.9470  177.3900  122.1420 C   0  0  2  0  0  0  0  0  0  0  0  0
  184.7850  178.6280  121.8430 C   0  0  0  0  0  0  0  0  0  0  0  0
  184.6820  179.6540  122.5170 O   0  0  0  0  0  0  0  0  0  0  0  0
  182.5260  177.7740  122.5370 C   0  0  0  0  0  0  0  0  0  0  0  0
  181.7990  178.6450  121.5100 C   0  0  0  0  0  0  0  0  0  0  0  0
  180.3970  179.0220  121.9530 C   0  0  0  0  0  0  0  0  0  0  0  0
  179.8070  178.3570  122.8020 O   0  0  0  0  0  0  0  0  0  0  0  0
  179.8500  180.0800  121.3650 N   0  0  0  0  0  0  0  0  0  0  0  0
  185.6640  178.5170  120.8430 N   0  0  0  0  0  0  0  0  0  0  0  0
  186.5290  179.6250  120.4410 C   0  0  2  0  0  0  0  0  0  0  0  0
  185.8330  180.6710  119.5800 C   0  0  0  0  0  0  0  0  0  0  0  0
  186.3900  181.7560  119.3890 O   0  0  0  0  0  0  0  0  0  0  0  0
  187.7540  179.0950  119.6940 C   0  0  0  0  0  0  0  0  0  0  0  0
  184.6570  180.3670  119.0400 N   0  0  0  0  0  0  0  0  0  0  0  0
  183.9510  181.3260  118.2150 C   0  0  0  0  0  0  0  0  0  0  0  0
  182.5850  181.6570  118.7650 C   0  0  0  0  0  0  0  0  0  0  0  0
  182.3200  181.4510  119.9530 O   0  0  0  0  0  0  0  0  0  0  0  0
  181.7140  182.1930  117.9160 N   0  0  0  0  0  0  0  0  0  0  0  0
  180.3610  182.5320  118.3240 C   0  0  2  0  0  0  0  0  0  0  0  0
  179.3760  181.3890  118.1260 C   0  0  0  0  0  0  0  0  0  0  0  0
  178.2240  181.5030  118.5600 O   0  0  0  0  0  0  0  0  0  0  0  0
  179.8790  183.7590  117.5540 C   0  0  0  0  0  0  0  0  0  0  0  0
  179.8880  183.4910  116.1640 O   0  0  0  0  0  0  0  0  0  0  0  0
  179.7880  180.3030  117.4750 N   0  0  0  0  0  0  0  0  0  0  0  0
  178.8990  179.1790  117.2230 C   0  0  2  0  0  0  0  0  0  0  0  0
  179.0030  178.2070  118.3880 C   0  0  0  0  0  0  0  0  0  0  0  0
  180.1120  177.7360  118.6820 O   0  0  0  0  0  0  0  0  0  0  0  0
  179.2530  178.4800  115.9200 C   0  0  2  0  0  0  0  0  0  0  0  0
  179.1930  179.4260  114.8490 O   0  0  0  0  0  0  0  0  0  0  0  0
  178.2700  177.3470  115.6360 C   0  0  0  0  0  0  0  0  0  0  0  0
  185.7330  173.7340  113.7380 N   0  0  0  0  0  0  0  0  0  0  0  0
  186.1640  175.1200  113.6020 C   0  0  2  0  0  0  0  0  0  0  0  0
  185.6980  175.9300  114.8050 C   0  0  0  0  0  0  0  0  0  0  0  0
  184.5070  175.9380  115.1330 O   0  0  0  0  0  0  0  0  0  0  0  0
  185.6350  175.7280  112.3050 C   0  0  0  0  0  0  0  0  0  0  0  0
  186.1200  177.1250  112.0570 C   0  0  0  0  0  0  0  0  0  0  0  0
  187.4410  177.3580  111.7170 C   0  0  0  0  0  0  0  0  0  0  0  0
  185.2590  178.2040  112.1660 C   0  0  0  0  0  0  0  0  0  0  0  0
  187.8900  178.6350  111.4880 C   0  0  0  0  0  0  0  0  0  0  0  0
  185.7050  179.4830  111.9370 C   0  0  0  0  0  0  0  0  0  0  0  0
  187.0230  179.6990  111.6090 C   0  0  0  0  0  0  0  0  0  0  0  0
  186.6480  176.5900  115.4710 N   0  0  0  0  0  0  0  0  0  0  0  0
  186.3950  177.3420  116.7020 C   0  0  2  0  0  0  0  0  0  0  0  0
  185.8380  176.4540  117.8110 C   0  0  0  0  0  0  0  0  0  0  0  0
  185.1380  176.9310  118.7080 O   0  0  0  0  0  0  0  0  0  0  0  0
  185.4660  178.5380  116.4620 C   0  0  0  0  0  0  0  0  0  0  0  0
  186.0880  179.5950  115.5720 C   0  0  0  0  0  0  0  0  0  0  0  0
  187.3100  179.7160  115.4870 O   0  0  0  0  0  0  0  0  0  0  0  0
  185.2440  180.3830  114.9190 N   0  0  0  0  0  0  0  0  0  0  0  0
  187.6350  173.4870  120.1020 N   0  0  0  0  0  0  0  0  0  0  0  0
  188.8940  172.8010  120.3500 C   0  0  2  0  0  0  0  0  0  0  0  0
  188.8720  172.1430  121.7220 C   0  0  0  0  0  0  0  0  0  0  0  0
  188.2080  172.6170  122.6470 O   0  0  0  0  0  0  0  0  0  0  0  0
  190.0860  173.7670  120.2360 C   0  0  0  0  0  0  0  0  0  0  0  0
  190.0370  174.6580  119.0090 C   0  0  0  0  0  0  0  0  0  0  0  0
  189.7600  174.1300  117.7530 C   0  0  0  0  0  0  0  0  0  0  0  0
  190.2600  176.0250  119.1080 C   0  0  0  0  0  0  0  0  0  0  0  0
  189.7110  174.9370  116.6290 C   0  0  0  0  0  0  0  0  0  0  0  0
  190.2140  176.8410  117.9880 C   0  0  0  0  0  0  0  0  0  0  0  0
  189.9390  176.2920  116.7530 C   0  0  0  0  0  0  0  0  0  0  0  0
  189.8930  177.1010  115.6400 O   0  0  0  0  0  0  0  0  0  0  0  0
  2  1  1  1
  3  2  1  0
  4  3  2  0
  5  2  1  0
  6  5  1  0
  7  6  1  0
  8  7  1  0
  9  8  1  0
 11 10  1  6
 12 11  1  0
 13 12  2  0
 14 11  1  0
 15 14  1  0
 16 15  2  0
 17 15  1  0
 18 16  1  0
 19 17  2  0
 20 19  1  0
 20 18  2  0
 21 20  1  0
 23 22  1  1
 24 23  1  0
 25 24  2  0
 26 23  1  0
 27 26  1  0
 28 27  1  0
 29 28  1  0
 30 29  1  0
 31 30  1  0
 32 30  2  0
 33 24  1  0
 34 33  1  0
 35 34  1  0
 36 35  2  0
 34 37  1  6
 38 37  1  0
 39 38  1  0
 40 38  1  0
 41 35  1  0
 42 41  1  0
 43 42  1  0
 44 43  2  0
 42 45  1  6
 46 45  1  0
 47 46  2  0
 48 46  1  0
 49 47  1  0
 50 48  2  0
 51 50  1  0
 51 49  2  0
 52 43  1  0
 53 52  1  0
 54 53  1  0
 55 54  2  0
 53 56  1  1
 57 56  1  0
 58 57  1  0
 59 58  1  0
 60 59  1  0
 61 60  1  0
 62 60  2  0
 63 54  1  0
 64 63  1  0
 65 64  1  0
 66 65  2  0
 64 67  1  1
 68 67  1  0
 69 68  1  0
 70 69  1  0
 71 70  1  0
 73 72  1  6
 74 73  1  0
 75 74  2  0
 76 73  1  0
 77 76  1  0
 78 77  2  0
 79 77  1  0
 80 78  1  0
 81 79  2  0
 82 81  1  0
 82 80  2  0
 83 82  1  0
 84 74  1  0
 85 84  1  0
 86 85  1  0
 87 86  2  0
 85 88  1  1
 89 88  1  0
 90 89  1  0
 91 90  2  0
 92 90  1  0
 93 86  1  0
 94 93  1  0
 95 94  1  0
 96 95  2  0
 94 97  1  6
 98 95  1  0
 99 98  1  0
100 99  1  0
101100  2  0
102100  1  0
103102  1  0
104103  1  0
105104  2  0
103106  1  6
107106  1  0
108104  1  0
109108  1  1
110109  1  0
111110  2  0
112109  1  0
113112  1  0
112114  1  6
116115  1  1
117116  1  0
118117  2  0
119116  1  0
120119  1  0
121120  2  0
122120  1  0
123121  1  0
124122  2  0
125124  1  0
125123  2  0
126117  1  0
127126  1  0
128127  1  0
129128  2  0
127130  1  6
131130  1  0
132131  2  0
133131  1  0
135134  1  1
136135  1  0
137136  2  0
138135  1  0
139138  1  0
140139  2  0
141139  1  0
142140  1  0
143141  2  0
144143  1  0
144142  2  0
145144  1  0
M  END
$$$$
