
     RDKit          3D

124123  0  0  0  0  0  0  0  0999 V2000
  169.8040  134.4990   96.8020 N   0  0  0  0  0  0  0  0  0  0  0  0
  171.0680  134.6180   96.0920 C   0  0  2  0  0  0  0  0  0  0  0  0
  172.0920  135.3250   96.9720 C   0  0  0  0  0  0  0  0  0  0  0  0
  171.7410  136.0920   97.8740 O   0  0  0  0  0  0  0  0  0  0  0  0
  170.8790  135.3850   94.7840 C   0  0  0  0  0  0  0  0  0  0  0  0
  170.3380  134.5430   93.6420 C   0  0  0  0  0  0  0  0  0  0  0  0
  169.9760  135.4100   92.4480 C   0  0  0  0  0  0  0  0  0  0  0  0
  171.0900  136.2520   92.0300 N   0  0  0  0  0  0  0  0  0  0  0  0
  171.1310  136.9310   90.8920 C   0  0  0  0  0  0  0  0  0  0  0  0
  170.1310  136.8910   90.0270 N   0  0  0  0  0  0  0  0  0  0  0  0
  172.2020  137.6690   90.6140 N   0  0  0  0  0  0  0  0  0  0  0  0
  165.4340  123.7170   91.3560 N   0  0  0  0  0  0  0  0  0  0  0  0
  164.2830  124.5810   91.1380 C   0  0  2  0  0  0  0  0  0  0  0  0
  163.2970  124.5670   92.3010 C   0  0  0  0  0  0  0  0  0  0  0  0
  162.1820  125.0780   92.1550 O   0  0  0  0  0  0  0  0  0  0  0  0
  163.5660  124.1900   89.8420 C   0  0  0  0  0  0  0  0  0  0  0  0
  164.3610  124.4880   88.5900 C   0  0  0  0  0  0  0  0  0  0  0  0
  165.3110  123.5930   88.1160 C   0  0  0  0  0  0  0  0  0  0  0  0
  164.1620  125.6670   87.8830 C   0  0  0  0  0  0  0  0  0  0  0  0
  166.0400  123.8640   86.9720 C   0  0  0  0  0  0  0  0  0  0  0  0
  164.8850  125.9460   86.7390 C   0  0  0  0  0  0  0  0  0  0  0  0
  165.8220  125.0410   86.2880 C   0  0  0  0  0  0  0  0  0  0  0  0
  166.5450  125.3150   85.1490 O   0  0  0  0  0  0  0  0  0  0  0  0
  161.1720  132.6090   94.5060 N   0  0  0  0  0  0  0  0  0  0  0  0
  161.0380  133.9750   94.9860 C   0  0  2  0  0  0  0  0  0  0  0  0
  159.8800  134.6470   94.2630 C   0  0  0  0  0  0  0  0  0  0  0  0
  159.5340  134.2770   93.1380 O   0  0  0  0  0  0  0  0  0  0  0  0
  162.3280  134.7820   94.7720 C   0  0  0  0  0  0  0  0  0  0  0  0
  162.7600  134.8920   93.3250 C   0  0  0  0  0  0  0  0  0  0  0  0
  163.5450  133.9100   92.7360 C   0  0  0  0  0  0  0  0  0  0  0  0
  162.3970  135.9890   92.5530 C   0  0  0  0  0  0  0  0  0  0  0  0
  163.9470  134.0100   91.4170 C   0  0  0  0  0  0  0  0  0  0  0  0
  162.7940  136.0970   91.2330 C   0  0  0  0  0  0  0  0  0  0  0  0
  163.5690  135.1060   90.6710 C   0  0  0  0  0  0  0  0  0  0  0  0
  163.9660  135.2100   89.3580 O   0  0  0  0  0  0  0  0  0  0  0  0
  159.0560  132.8590   90.6590 N   0  0  0  0  0  0  0  0  0  0  0  0
  160.1080  132.4210   89.7560 C   0  0  2  0  0  0  0  0  0  0  0  0
  161.0990  131.5790   90.5480 C   0  0  0  0  0  0  0  0  0  0  0  0
  161.1820  131.6750   91.7740 O   0  0  0  0  0  0  0  0  0  0  0  0
  160.8090  133.6170   89.0910 C   0  0  0  0  0  0  0  0  0  0  0  0
  161.7070  133.2600   87.9150 C   0  0  0  0  0  0  0  0  0  0  0  0
  160.9930  132.4280   86.8670 C   0  0  0  0  0  0  0  0  0  0  0  0
  159.8550  132.7180   86.4970 O   0  0  0  0  0  0  0  0  0  0  0  0
  161.6600  131.3860   86.3840 N   0  0  0  0  0  0  0  0  0  0  0  0
  161.8480  130.7400   89.8400 N   0  0  0  0  0  0  0  0  0  0  0  0
  162.7890  129.8310   90.4740 C   0  0  2  0  0  0  0  0  0  0  0  0
  164.2220  130.2980   90.2590 C   0  0  0  0  0  0  0  0  0  0  0  0
  164.5660  130.8560   89.2130 O   0  0  0  0  0  0  0  0  0  0  0  0
  162.6260  128.4090   89.9320 C   0  0  0  0  0  0  0  0  0  0  0  0
  163.6530  127.5680   90.4210 O   0  0  0  0  0  0  0  0  0  0  0  0
  165.0570  130.0600   91.2740 N   0  0  0  0  0  0  0  0  0  0  0  0
  166.4690  130.4170   91.1810 C   0  0  2  0  0  0  0  0  0  0  0  0
  167.2280  129.4590   90.2720 C   0  0  0  0  0  0  0  0  0  0  0  0
  168.0770  129.8860   89.4800 O   0  0  0  0  0  0  0  0  0  0  0  0
  167.0960  130.4340   92.5730 C   0  0  0  0  0  0  0  0  0  0  0  0
  166.6950  131.6140   93.4290 C   0  0  0  0  0  0  0  0  0  0  0  0
  167.1270  132.8980   93.1230 C   0  0  0  0  0  0  0  0  0  0  0  0
  165.8910  131.4430   94.5490 C   0  0  0  0  0  0  0  0  0  0  0  0
  166.7660  133.9780   93.9050 C   0  0  0  0  0  0  0  0  0  0  0  0
  165.5250  132.5170   95.3370 C   0  0  0  0  0  0  0  0  0  0  0  0
  165.9660  133.7820   95.0110 C   0  0  0  0  0  0  0  0  0  0  0  0
  165.6040  134.8560   95.7920 O   0  0  0  0  0  0  0  0  0  0  0  0
  166.9330  128.1630   90.3650 N   0  0  0  0  0  0  0  0  0  0  0  0
  167.6470  127.1610   89.5990 C   0  0  0  0  0  0  0  0  0  0  0  0
  169.1290  127.0940   89.9120 C   0  0  0  0  0  0  0  0  0  0  0  0
  169.9600  127.1250   88.9990 O   0  0  0  0  0  0  0  0  0  0  0  0
  169.4690  127.0190   91.1990 N   0  0  0  0  0  0  0  0  0  0  0  0
  170.8650  127.0560   91.6250 C   0  0  2  0  0  0  0  0  0  0  0  0
  171.6600  125.9170   90.9980 C   0  0  0  0  0  0  0  0  0  0  0  0
  171.3460  124.7400   91.2040 O   0  0  0  0  0  0  0  0  0  0  0  0
  170.9580  126.9750   93.1490 C   0  0  0  0  0  0  0  0  0  0  0  0
  170.3350  128.1380   93.8690 C   0  0  0  0  0  0  0  0  0  0  0  0
  170.8530  129.4150   93.7300 C   0  0  0  0  0  0  0  0  0  0  0  0
  169.2550  127.9470   94.7160 C   0  0  0  0  0  0  0  0  0  0  0  0
  170.2920  130.4840   94.4030 C   0  0  0  0  0  0  0  0  0  0  0  0
  168.6900  129.0120   95.3930 C   0  0  0  0  0  0  0  0  0  0  0  0
  169.2110  130.2820   95.2380 C   0  0  0  0  0  0  0  0  0  0  0  0
  172.6940  126.2710   90.2290 N   0  0  0  0  0  0  0  0  0  0  0  0
  173.6670  125.3270   89.7050 C   0  0  2  0  0  0  0  0  0  0  0  0
  174.9980  125.4860   90.4310 C   0  0  0  0  0  0  0  0  0  0  0  0
  175.4130  126.6160   90.7110 O   0  0  0  0  0  0  0  0  0  0  0  0
  173.8790  125.5290   88.2000 C   0  0  0  0  0  0  0  0  0  0  0  0
  172.6500  125.2290   87.3570 C   0  0  0  0  0  0  0  0  0  0  0  0
  172.9120  125.3790   85.8710 C   0  0  0  0  0  0  0  0  0  0  0  0
  173.8810  126.0180   85.4620 O   0  0  0  0  0  0  0  0  0  0  0  0
  172.0450  124.7910   85.0550 N   0  0  0  0  0  0  0  0  0  0  0  0
  177.9730  125.4240   89.5430 N   0  0  0  0  0  0  0  0  0  0  0  0
  178.9820  126.1760   88.8080 C   0  0  2  0  0  0  0  0  0  0  0  0
  178.7110  127.6750   88.7990 C   0  0  0  0  0  0  0  0  0  0  0  0
  179.4330  128.4170   88.1250 O   0  0  0  0  0  0  0  0  0  0  0  0
  179.0810  125.6610   87.3700 C   0  0  2  0  0  0  0  0  0  0  0  0
  177.7970  125.7500   86.7390 O   0  0  0  0  0  0  0  0  0  0  0  0
  179.5490  124.2130   87.3530 C   0  0  0  0  0  0  0  0  0  0  0  0
  177.6940  128.1300   89.5260 N   0  0  0  0  0  0  0  0  0  0  0  0
  177.3770  129.5480   89.5850 C   0  0  2  0  0  0  0  0  0  0  0  0
  178.4760  130.3260   90.3000 C   0  0  0  0  0  0  0  0  0  0  0  0
  179.1290  129.8240   91.2190 O   0  0  0  0  0  0  0  0  0  0  0  0
  176.0400  129.7700   90.2910 C   0  0  0  0  0  0  0  0  0  0  0  0
  174.8540  129.3670   89.4360 C   0  0  0  0  0  0  0  0  0  0  0  0
  175.0050  129.0440   88.2580 O   0  0  0  0  0  0  0  0  0  0  0  0
  173.6660  129.3840   90.0270 N   0  0  0  0  0  0  0  0  0  0  0  0
  178.6770  131.5650   89.8630 N   0  0  0  0  0  0  0  0  0  0  0  0
  179.4480  132.5030   90.6510 C   0  0  0  0  0  0  0  0  0  0  0  0
  178.7680  132.8260   91.9670 C   0  0  0  0  0  0  0  0  0  0  0  0
  177.5640  132.6280   92.1410 O   0  0  0  0  0  0  0  0  0  0  0  0
  179.5770  133.3090   92.9180 N   0  0  0  0  0  0  0  0  0  0  0  0
  179.1000  133.5400   94.2820 C   0  0  2  0  0  0  0  0  0  0  0  0
  177.8100  134.3520   94.2810 C   0  0  0  0  0  0  0  0  0  0  0  0
  176.9000  134.1030   95.0820 O   0  0  0  0  0  0  0  0  0  0  0  0
  180.1990  134.2130   95.1280 C   0  0  0  0  0  0  0  0  0  0  0  0
  181.3470  133.2440   95.3630 C   0  0  0  0  0  0  0  0  0  0  0  0
  180.7090  135.4750   94.4470 C   0  0  0  0  0  0  0  0  0  0  0  0
  175.3770  134.2920   92.3090 N   0  0  0  0  0  0  0  0  0  0  0  0
  174.2350  133.4550   91.9740 C   0  0  2  0  0  0  0  0  0  0  0  0
  174.1620  132.1820   92.8050 C   0  0  0  0  0  0  0  0  0  0  0  0
  173.2380  131.3860   92.6100 O   0  0  0  0  0  0  0  0  0  0  0  0
  174.2580  133.0920   90.4830 C   0  0  0  0  0  0  0  0  0  0  0  0
  173.9930  134.2580   89.5560 C   0  0  0  0  0  0  0  0  0  0  0  0
  174.9840  135.1900   89.2760 C   0  0  0  0  0  0  0  0  0  0  0  0
  172.7500  134.4250   88.9590 C   0  0  0  0  0  0  0  0  0  0  0  0
  174.7450  136.2530   88.4250 C   0  0  0  0  0  0  0  0  0  0  0  0
  172.5010  135.4860   88.1100 C   0  0  0  0  0  0  0  0  0  0  0  0
  173.5020  136.3970   87.8460 C   0  0  0  0  0  0  0  0  0  0  0  0
  173.2560  137.4570   87.0040 O   0  0  0  0  0  0  0  0  0  0  0  0
  2  1  1  1
  3  2  1  0
  4  3  2  0
  5  2  1  0
  6  5  1  0
  7  6  1  0
  8  7  1  0
  9  8  1  0
 10  9  1  0
 11  9  2  0
 13 12  1  1
 14 13  1  0
 15 14  2  0
 16 13  1  0
 17 16  1  0
 18 17  2  0
 19 17  1  0
 20 18  1  0
 21 19  2  0
 22 20  2  0
 22 21  1  0
 23 22  1  0
 25 24  1  6
 26 25  1  0
 27 26  2  0
 28 25  1  0
 29 28  1  0
 30 29  2  0
 31 29  1  0
 32 30  1  0
 33 31  2  0
 34 33  1  0
 34 32  2  0
 35 34  1  0
 37 36  1  1
 38 37  1  0
 39 38  2  0
 40 37  1  0
 41 40  1  0
 42 41  1  0
 43 42  2  0
 44 42  1  0
 45 38  1  0
 46 45  1  0
 47 46  1  0
 48 47  2  0
 46 49  1  6
 50 49  1  0
 51 47  1  0
 52 51  1  0
 53 52  1  0
 54 53  2  0
 52 55  1  1
 56 55  1  0
 57 56  2  0
 58 56  1  0
 59 57  1  0
 60 58  2  0
 61 60  1  0
 61 59  2  0
 62 61  1  0
 63 53  1  0
 64 63  1  0
 65 64  1  0
 66 65  2  0
 67 65  1  0
 68 67  1  0
 69 68  1  0
 70 69  2  0
 68 71  1  1
 72 71  1  0
 73 72  2  0
 74 72  1  0
 75 73  1  0
 76 74  2  0
 77 76  1  0
 77 75  2  0
 78 69  1  0
 79 78  1  0
 80 79  1  0
 81 80  2  0
 79 82  1  6
 83 82  1  0
 84 83  1  0
 85 84  2  0
 86 84  1  0
 88 87  1  6
 89 88  1  0
 90 89  2  0
 91 88  1  0
 92 91  1  0
 91 93  1  1
 94 89  1  0
 95 94  1  0
 96 95  1  0
 97 96  2  0
 95 98  1  1
 99 98  1  0
100 99  2  0
101 99  1  0
102 96  1  0
103102  1  0
104103  1  0
105104  2  0
106104  1  0
107106  1  6
108107  1  0
109108  2  0
110107  1  0
111110  1  0
112110  1  0
114113  1  1
115114  1  0
116115  2  0
117114  1  0
118117  1  0
119118  2  0
120118  1  0
121119  1  0
122120  2  0
123122  1  0
123121  2  0
124123  1  0
M  END
$$$$
