
     RDKit          3D

145144  0  0  0  0  0  0  0  0999 V2000
  164.1580  143.1830   94.8910 N   0  0  0  0  0  0  0  0  0  0  0  0
  163.0810  142.2120   94.7130 C   0  0  2  0  0  0  0  0  0  0  0  0
  162.7770  141.4650   96.0060 C   0  0  0  0  0  0  0  0  0  0  0  0
  161.6080  141.2450   96.3440 O   0  0  0  0  0  0  0  0  0  0  0  0
  163.4410  141.2240   93.6030 C   0  0  0  0  0  0  0  0  0  0  0  0
  162.8190  141.5490   92.2560 C   0  0  0  0  0  0  0  0  0  0  0  0
  163.7690  141.2210   91.1180 C   0  0  0  0  0  0  0  0  0  0  0  0
  164.1410  139.7470   91.1250 C   0  0  0  0  0  0  0  0  0  0  0  0
  165.5120  139.5160   90.5950 N   0  0  0  0  0  0  0  0  0  0  0  0
  159.4640  142.5130   97.8580 N   0  0  0  0  0  0  0  0  0  0  0  0
  158.4230  141.5690   97.4770 C   0  0  2  0  0  0  0  0  0  0  0  0
  158.5330  140.2100   98.1540 C   0  0  0  0  0  0  0  0  0  0  0  0
  157.6670  139.3570   97.9240 O   0  0  0  0  0  0  0  0  0  0  0  0
  158.4220  141.3710   95.9530 C   0  0  0  0  0  0  0  0  0  0  0  0
  158.3100  142.6520   95.1540 C   0  0  0  0  0  0  0  0  0  0  0  0
  157.4660  143.6780   95.5600 C   0  0  0  0  0  0  0  0  0  0  0  0
  159.0470  142.8330   93.9920 C   0  0  0  0  0  0  0  0  0  0  0  0
  157.3650  144.8510   94.8340 C   0  0  0  0  0  0  0  0  0  0  0  0
  158.9500  144.0000   93.2570 C   0  0  0  0  0  0  0  0  0  0  0  0
  158.1080  145.0060   93.6830 C   0  0  0  0  0  0  0  0  0  0  0  0
  158.0060  146.1670   92.9530 O   0  0  0  0  0  0  0  0  0  0  0  0
  159.2890  135.6480   94.9090 N   0  0  0  0  0  0  0  0  0  0  0  0
  158.2670  136.4470   94.2490 C   0  0  2  0  0  0  0  0  0  0  0  0
  158.9330  137.4430   93.3090 C   0  0  0  0  0  0  0  0  0  0  0  0
  159.8200  138.2000   93.7160 O   0  0  0  0  0  0  0  0  0  0  0  0
  157.4080  137.1780   95.2800 C   0  0  0  0  0  0  0  0  0  0  0  0
  156.2420  137.9490   94.6830 C   0  0  0  0  0  0  0  0  0  0  0  0
  155.2340  138.3350   95.7510 C   0  0  0  0  0  0  0  0  0  0  0  0
  154.7570  137.1750   96.4930 N   0  0  0  0  0  0  0  0  0  0  0  0
  153.7190  136.4310   96.1330 C   0  0  0  0  0  0  0  0  0  0  0  0
  153.0220  136.7000   95.0420 N   0  0  0  0  0  0  0  0  0  0  0  0
  153.3730  135.3920   96.8880 N   0  0  0  0  0  0  0  0  0  0  0  0
  158.5030  137.4390   92.0480 N   0  0  0  0  0  0  0  0  0  0  0  0
  159.0580  138.3310   91.0400 C   0  0  2  0  0  0  0  0  0  0  0  0
  158.1430  139.4980   90.6960 C   0  0  0  0  0  0  0  0  0  0  0  0
  158.6340  140.5620   90.3060 O   0  0  0  0  0  0  0  0  0  0  0  0
  159.3840  137.5380   89.7670 C   0  0  0  0  0  0  0  0  0  0  0  0
  159.8730  138.2950   88.5320 C   0  0  0  0  0  0  0  0  0  0  0  0
  161.1680  139.0190   88.8500 C   0  0  0  0  0  0  0  0  0  0  0  0
  160.0690  137.3410   87.3660 C   0  0  0  0  0  0  0  0  0  0  0  0
  156.8310  139.3350   90.8550 N   0  0  0  0  0  0  0  0  0  0  0  0
  155.8610  140.3530   90.4750 C   0  0  2  0  0  0  0  0  0  0  0  0
  154.9500  140.6580   91.6530 C   0  0  0  0  0  0  0  0  0  0  0  0
  154.3670  139.7450   92.2460 O   0  0  0  0  0  0  0  0  0  0  0  0
  155.0270  139.9050   89.2700 C   0  0  0  0  0  0  0  0  0  0  0  0
  155.8400  139.6140   88.0410 C   0  0  0  0  0  0  0  0  0  0  0  0
  156.4560  140.6390   87.3430 C   0  0  0  0  0  0  0  0  0  0  0  0
  155.9790  138.3160   87.5780 C   0  0  0  0  0  0  0  0  0  0  0  0
  157.2010  140.3750   86.2100 C   0  0  0  0  0  0  0  0  0  0  0  0
  156.7220  138.0460   86.4450 C   0  0  0  0  0  0  0  0  0  0  0  0
  157.3340  139.0760   85.7600 C   0  0  0  0  0  0  0  0  0  0  0  0
  154.8280  141.9420   91.9830 N   0  0  0  0  0  0  0  0  0  0  0  0
  153.9340  142.3940   93.0380 C   0  0  2  0  0  0  0  0  0  0  0  0
  153.6720  143.8790   92.8410 C   0  0  0  0  0  0  0  0  0  0  0  0
  154.5850  144.6340   92.4950 O   0  0  0  0  0  0  0  0  0  0  0  0
  154.5170  142.1330   94.4310 C   0  0  0  0  0  0  0  0  0  0  0  0
  153.4610  142.0100   95.5160 C   0  0  0  0  0  0  0  0  0  0  0  0
  154.0840  141.8050   96.8850 C   0  0  0  0  0  0  0  0  0  0  0  0
  153.0790  141.4750   97.8880 N   0  0  0  0  0  0  0  0  0  0  0  0
  152.3690  142.3710   98.5610 C   0  0  0  0  0  0  0  0  0  0  0  0
  152.5330  143.6690   98.3670 N   0  0  0  0  0  0  0  0  0  0  0  0
  151.4750  141.9530   99.4530 N   0  0  0  0  0  0  0  0  0  0  0  0
  152.4200  144.2870   93.0580 N   0  0  0  0  0  0  0  0  0  0  0  0
  152.0310  145.6630   92.7610 C   0  0  2  0  0  0  0  0  0  0  0  0
  152.6940  146.6540   93.7110 C   0  0  0  0  0  0  0  0  0  0  0  0
  153.0620  147.7600   93.2990 O   0  0  0  0  0  0  0  0  0  0  0  0
  150.5090  145.7980   92.8190 C   0  0  0  0  0  0  0  0  0  0  0  0
  149.7790  145.0310   91.7270 C   0  0  0  0  0  0  0  0  0  0  0  0
  149.9490  145.7020   90.3730 C   0  0  0  0  0  0  0  0  0  0  0  0
  148.8120  145.3450   89.4290 C   0  0  0  0  0  0  0  0  0  0  0  0
  148.6640  143.8720   89.2640 N   0  0  0  0  0  0  0  0  0  0  0  0
  149.5780  137.5940   87.8470 N   0  0  0  0  0  0  0  0  0  0  0  0
  149.8880  139.0100   87.9790 C   0  0  2  0  0  0  0  0  0  0  0  0
  149.5070  139.7450   86.7010 C   0  0  0  0  0  0  0  0  0  0  0  0
  149.9420  139.3700   85.6070 O   0  0  0  0  0  0  0  0  0  0  0  0
  151.3720  139.2110   88.2860 C   0  0  0  0  0  0  0  0  0  0  0  0
  151.7650  140.6550   88.4960 C   0  0  0  0  0  0  0  0  0  0  0  0
  151.6020  141.2660   89.7320 C   0  0  0  0  0  0  0  0  0  0  0  0
  152.3060  141.4040   87.4610 C   0  0  0  0  0  0  0  0  0  0  0  0
  151.9610  142.5860   89.9290 C   0  0  0  0  0  0  0  0  0  0  0  0
  152.6690  142.7230   87.6480 C   0  0  0  0  0  0  0  0  0  0  0  0
  152.4940  143.3090   88.8830 C   0  0  0  0  0  0  0  0  0  0  0  0
  152.8560  144.6230   89.0740 O   0  0  0  0  0  0  0  0  0  0  0  0
  148.6950  140.7900   86.8440 N   0  0  0  0  0  0  0  0  0  0  0  0
  148.1660  141.5320   85.7020 C   0  0  2  0  0  0  0  0  0  0  0  0
  149.1290  142.6690   85.3830 C   0  0  0  0  0  0  0  0  0  0  0  0
  149.0900  143.7290   86.0120 O   0  0  0  0  0  0  0  0  0  0  0  0
  146.7660  142.0550   86.0020 C   0  0  0  0  0  0  0  0  0  0  0  0
  146.1590  142.8870   84.8850 C   0  0  0  0  0  0  0  0  0  0  0  0
  144.7060  143.2330   85.1420 C   0  0  0  0  0  0  0  0  0  0  0  0
  144.0210  142.5560   85.9080 O   0  0  0  0  0  0  0  0  0  0  0  0
  144.2290  144.2940   84.5010 N   0  0  0  0  0  0  0  0  0  0  0  0
  150.0000  142.4430   84.4010 N   0  0  0  0  0  0  0  0  0  0  0  0
  150.9740  143.4450   83.9890 C   0  0  2  0  0  0  0  0  0  0  0  0
  150.4100  144.4440   82.9890 C   0  0  0  0  0  0  0  0  0  0  0  0
  151.0670  145.4540   82.7120 O   0  0  0  0  0  0  0  0  0  0  0  0
  152.2100  142.7660   83.3940 C   0  0  0  0  0  0  0  0  0  0  0  0
  149.2220  144.1920   82.4450 N   0  0  0  0  0  0  0  0  0  0  0  0
  148.6570  145.0620   81.4340 C   0  0  0  0  0  0  0  0  0  0  0  0
  147.2630  145.5620   81.7540 C   0  0  0  0  0  0  0  0  0  0  0  0
  146.8340  145.5390   82.9110 O   0  0  0  0  0  0  0  0  0  0  0  0
  146.5470  146.0180   80.7250 N   0  0  0  0  0  0  0  0  0  0  0  0
  145.2340  146.6210   80.9270 C   0  0  2  0  0  0  0  0  0  0  0  0
  144.1400  145.5680   81.0650 C   0  0  0  0  0  0  0  0  0  0  0  0
  143.2390  145.7140   81.8980 O   0  0  0  0  0  0  0  0  0  0  0  0
  144.9130  147.5740   79.7750 C   0  0  0  0  0  0  0  0  0  0  0  0
  146.0240  148.3990   79.4710 O   0  0  0  0  0  0  0  0  0  0  0  0
  144.1980  144.5070   80.2630 N   0  0  0  0  0  0  0  0  0  0  0  0
  143.1070  143.5410   80.3270 C   0  0  2  0  0  0  0  0  0  0  0  0
  143.4030  142.4670   81.3720 C   0  0  0  0  0  0  0  0  0  0  0  0
  144.5530  142.0430   81.5190 O   0  0  0  0  0  0  0  0  0  0  0  0
  142.8900  142.8800   78.9690 C   0  0  2  0  0  0  0  0  0  0  0  0
  144.1390  142.3830   78.4720 O   0  0  0  0  0  0  0  0  0  0  0  0
  142.3170  143.8800   77.9760 C   0  0  0  0  0  0  0  0  0  0  0  0
  150.6150  136.6240   77.7810 N   0  0  0  0  0  0  0  0  0  0  0  0
  151.2190  137.9440   77.6740 C   0  0  2  0  0  0  0  0  0  0  0  0
  150.5340  138.9070   78.6360 C   0  0  0  0  0  0  0  0  0  0  0  0
  149.3060  138.9230   78.7540 O   0  0  0  0  0  0  0  0  0  0  0  0
  151.1180  138.4630   76.2400 C   0  0  0  0  0  0  0  0  0  0  0  0
  151.8600  139.7490   76.0080 C   0  0  0  0  0  0  0  0  0  0  0  0
  153.2420  139.7580   75.9080 C   0  0  0  0  0  0  0  0  0  0  0  0
  151.1770  140.9480   75.8900 C   0  0  0  0  0  0  0  0  0  0  0  0
  153.9280  140.9380   75.6950 C   0  0  0  0  0  0  0  0  0  0  0  0
  151.8580  142.1320   75.6760 C   0  0  0  0  0  0  0  0  0  0  0  0
  153.2350  142.1270   75.5790 C   0  0  0  0  0  0  0  0  0  0  0  0
  151.3430  139.7090   79.3300 N   0  0  0  0  0  0  0  0  0  0  0  0
  150.8800  140.6340   80.3650 C   0  0  2  0  0  0  0  0  0  0  0  0
  150.1110  139.9270   81.4790 C   0  0  0  0  0  0  0  0  0  0  0  0
  149.3020  140.5520   82.1720 O   0  0  0  0  0  0  0  0  0  0  0  0
  150.0270  141.7600   79.7670 C   0  0  0  0  0  0  0  0  0  0  0  0
  150.8670  142.8650   79.1570 C   0  0  0  0  0  0  0  0  0  0  0  0
  152.0160  143.0740   79.5460 O   0  0  0  0  0  0  0  0  0  0  0  0
  150.2950  143.5810   78.1960 N   0  0  0  0  0  0  0  0  0  0  0  0
  151.2480  137.0220   84.2460 N   0  0  0  0  0  0  0  0  0  0  0  0
  152.4730  136.3350   84.6290 C   0  0  2  0  0  0  0  0  0  0  0  0
  152.2900  135.6560   85.9770 C   0  0  0  0  0  0  0  0  0  0  0  0
  151.7760  136.2670   86.9210 O   0  0  0  0  0  0  0  0  0  0  0  0
  153.6430  137.3190   84.6790 C   0  0  0  0  0  0  0  0  0  0  0  0
  153.8730  138.0300   83.3660 C   0  0  0  0  0  0  0  0  0  0  0  0
  153.8000  137.3430   82.1610 C   0  0  0  0  0  0  0  0  0  0  0  0
  154.1360  139.3920   83.3280 C   0  0  0  0  0  0  0  0  0  0  0  0
  154.0010  137.9890   80.9570 C   0  0  0  0  0  0  0  0  0  0  0  0
  154.3350  140.0470   82.1280 C   0  0  0  0  0  0  0  0  0  0  0  0
  154.2690  139.3410   80.9460 C   0  0  0  0  0  0  0  0  0  0  0  0
  154.4670  139.9890   79.7490 O   0  0  0  0  0  0  0  0  0  0  0  0
  2  1  1  1
  3  2  1  0
  4  3  2  0
  5  2  1  0
  6  5  1  0
  7  6  1  0
  8  7  1  0
  9  8  1  0
 11 10  1  6
 12 11  1  0
 13 12  2  0
 14 11  1  0
 15 14  1  0
 16 15  2  0
 17 15  1  0
 18 16  1  0
 19 17  2  0
 20 18  2  0
 20 19  1  0
 21 20  1  0
 23 22  1  1
 24 23  1  0
 25 24  2  0
 26 23  1  0
 27 26  1  0
 28 27  1  0
 29 28  1  0
 30 29  1  0
 31 30  1  0
 32 30  2  0
 33 24  1  0
 34 33  1  0
 35 34  1  0
 36 35  2  0
 34 37  1  6
 38 37  1  0
 39 38  1  0
 40 38  1  0
 41 35  1  0
 42 41  1  0
 43 42  1  0
 44 43  2  0
 42 45  1  6
 46 45  1  0
 47 46  2  0
 48 46  1  0
 49 47  1  0
 50 48  2  0
 51 50  1  0
 51 49  2  0
 52 43  1  0
 53 52  1  0
 54 53  1  0
 55 54  2  0
 53 56  1  1
 57 56  1  0
 58 57  1  0
 59 58  1  0
 60 59  1  0
 61 60  1  0
 62 60  2  0
 63 54  1  0
 64 63  1  0
 65 64  1  0
 66 65  2  0
 64 67  1  1
 68 67  1  0
 69 68  1  0
 70 69  1  0
 71 70  1  0
 73 72  1  6
 74 73  1  0
 75 74  2  0
 76 73  1  0
 77 76  1  0
 78 77  2  0
 79 77  1  0
 80 78  1  0
 81 79  2  0
 82 80  2  0
 82 81  1  0
 83 82  1  0
 84 74  1  0
 85 84  1  0
 86 85  1  0
 87 86  2  0
 85 88  1  1
 89 88  1  0
 90 89  1  0
 91 90  2  0
 92 90  1  0
 93 86  1  0
 94 93  1  0
 95 94  1  0
 96 95  2  0
 94 97  1  6
 98 95  1  0
 99 98  1  0
100 99  1  0
101100  2  0
102100  1  0
103102  1  0
104103  1  0
105104  2  0
103106  1  6
107106  1  0
108104  1  0
109108  1  6
110109  1  0
111110  2  0
112109  1  0
113112  1  0
112114  1  6
116115  1  6
117116  1  0
118117  2  0
119116  1  0
120119  1  0
121120  2  0
122120  1  0
123121  1  0
124122  2  0
125124  1  0
125123  2  0
126117  1  0
127126  1  0
128127  1  0
129128  2  0
127130  1  6
131130  1  0
132131  2  0
133131  1  0
135134  1  1
136135  1  0
137136  2  0
138135  1  0
139138  1  0
140139  2  0
141139  1  0
142140  1  0
143141  2  0
144142  2  0
144143  1  0
145144  1  0
M  END
$$$$
