
     RDKit          3D

119119  0  0  0  0  0  0  0  0999 V2000
  254.9790  226.0060  159.3480 N   0  0  0  0  0  0  0  0  0  0  0  0
  255.2530  227.2680  158.6790 C   0  0  2  0  0  0  0  0  0  0  0  0
  254.9300  228.4380  159.5990 C   0  0  0  0  0  0  0  0  0  0  0  0
  254.1000  228.3310  160.5070 O   0  0  0  0  0  0  0  0  0  0  0  0
  254.4330  227.3900  157.3930 C   0  0  0  0  0  0  0  0  0  0  0  0
  255.0380  226.7020  156.1810 C   0  0  0  0  0  0  0  0  0  0  0  0
  254.0310  226.6060  155.0390 C   0  0  0  0  0  0  0  0  0  0  0  0
  253.3430  227.8720  154.7950 N   0  0  0  0  0  0  0  0  0  0  0  0
  252.5880  228.1210  153.7280 C   0  0  0  0  0  0  0  0  0  0  0  0
  252.4240  227.1960  152.7940 N   0  0  0  0  0  0  0  0  0  0  0  0
  251.9990  229.3010  153.5940 N   0  0  0  0  0  0  0  0  0  0  0  0
  263.0470  218.4740  153.0580 N   0  0  0  0  0  0  0  0  0  0  0  0
  261.7910  217.7520  152.9410 C   0  0  2  0  0  0  0  0  0  0  0  0
  261.5470  216.7830  154.0870 C   0  0  0  0  0  0  0  0  0  0  0  0
  260.5520  216.0480  154.0540 O   0  0  0  0  0  0  0  0  0  0  0  0
  261.7360  216.9950  151.6080 C   0  0  0  0  0  0  0  0  0  0  0  0
  261.6770  217.9060  150.4020 C   0  0  0  0  0  0  0  0  0  0  0  0
  260.4650  218.4120  149.9490 C   0  0  0  0  0  0  0  0  0  0  0  0
  262.8320  218.2650  149.7200 C   0  0  0  0  0  0  0  0  0  0  0  0
  260.4050  219.2490  148.8510 C   0  0  0  0  0  0  0  0  0  0  0  0
  262.7810  219.0980  148.6200 C   0  0  0  0  0  0  0  0  0  0  0  0
  261.5650  219.5870  148.1900 C   0  0  0  0  0  0  0  0  0  0  0  0
  261.5120  220.4190  147.0960 O   0  0  0  0  0  0  0  0  0  0  0  0
  253.5010  217.2600  156.9420 N   0  0  0  0  0  0  0  0  0  0  0  0
  252.2240  217.5560  157.5760 C   0  0  2  0  0  0  0  0  0  0  0  0
  251.1520  216.7220  156.8960 C   0  0  0  0  0  0  0  0  0  0  0  0
  251.2810  216.3640  155.7220 O   0  0  0  0  0  0  0  0  0  0  0  0
  251.8700  219.0490  157.4930 C   0  0  0  0  0  0  0  0  0  0  0  0
  251.7720  219.5960  156.0850 C   0  0  0  0  0  0  0  0  0  0  0  0
  252.8960  220.0790  155.4300 C   0  0  0  0  0  0  0  0  0  0  0  0
  250.5540  219.6400  155.4150 C   0  0  0  0  0  0  0  0  0  0  0  0
  252.8160  220.5860  154.1470 C   0  0  0  0  0  0  0  0  0  0  0  0
  250.4630  220.1450  154.1280 C   0  0  0  0  0  0  0  0  0  0  0  0
  251.5970  220.6180  153.4980 C   0  0  0  0  0  0  0  0  0  0  0  0
  251.5190  221.1230  152.2190 O   0  0  0  0  0  0  0  0  0  0  0  0
  255.0170  217.2430  152.0630 N   0  0  0  0  0  0  0  0  0  0  0  0
  256.2820  217.7800  152.5350 C   0  0  2  0  0  0  0  0  0  0  0  0
  256.2640  219.3030  152.5180 C   0  0  0  0  0  0  0  0  0  0  0  0
  255.7260  219.9230  151.5940 O   0  0  0  0  0  0  0  0  0  0  0  0
  257.4370  217.2640  151.6760 C   0  0  0  0  0  0  0  0  0  0  0  0
  258.6760  217.5670  152.2850 O   0  0  0  0  0  0  0  0  0  0  0  0
  256.8340  219.9030  153.5600 N   0  0  0  0  0  0  0  0  0  0  0  0
  257.1710  221.3170  153.5030 C   0  0  2  0  0  0  0  0  0  0  0  0
  258.3880  221.5150  152.6080 C   0  0  0  0  0  0  0  0  0  0  0  0
  259.2940  220.6800  152.5740 O   0  0  0  0  0  0  0  0  0  0  0  0
  257.4710  221.8680  154.8980 C   0  0  0  0  0  0  0  0  0  0  0  0
  256.2820  222.0590  155.8170 C   0  0  0  0  0  0  0  0  0  0  0  0
  255.3190  223.0260  155.5530 C   0  0  0  0  0  0  0  0  0  0  0  0
  256.1570  221.3070  156.9790 C   0  0  0  0  0  0  0  0  0  0  0  0
  254.2460  223.2160  156.4080 C   0  0  0  0  0  0  0  0  0  0  0  0
  255.0900  221.4900  157.8400 C   0  0  0  0  0  0  0  0  0  0  0  0
  254.1380  222.4440  157.5510 C   0  0  0  0  0  0  0  0  0  0  0  0
  253.0780  222.6220  158.4090 O   0  0  0  0  0  0  0  0  0  0  0  0
  258.4060  222.6270  151.8810 N   0  0  0  0  0  0  0  0  0  0  0  0
  259.5610  222.9720  151.0760 C   0  0  0  0  0  0  0  0  0  0  0  0
  260.3690  224.0840  151.7100 C   0  0  0  0  0  0  0  0  0  0  0  0
  260.3140  225.2320  151.2600 O   0  0  0  0  0  0  0  0  0  0  0  0
  261.1230  223.7580  152.7570 N   0  0  0  0  0  0  0  0  0  0  0  0
  261.8450  224.7650  153.5350 C   0  0  2  0  0  0  0  0  0  0  0  0
  263.1700  225.0790  152.8590 C   0  0  0  0  0  0  0  0  0  0  0  0
  264.1480  224.3400  152.9960 O   0  0  0  0  0  0  0  0  0  0  0  0
  262.0520  224.2870  154.9650 C   0  0  0  0  0  0  0  0  0  0  0  0
  260.8060  224.3240  155.7920 C   0  0  0  0  0  0  0  0  0  0  0  0
  259.8690  225.3270  155.6060 C   0  0  0  0  0  0  0  0  0  0  0  0
  260.5590  223.3500  156.7430 C   0  0  0  0  0  0  0  0  0  0  0  0
  258.7150  225.3660  156.3620 C   0  0  0  0  0  0  0  0  0  0  0  0
  259.4040  223.3810  157.5030 C   0  0  0  0  0  0  0  0  0  0  0  0
  258.4830  224.3910  157.3120 C   0  0  0  0  0  0  0  0  0  0  0  0
  263.2000  226.1870  152.1260 N   0  0  0  0  0  0  0  0  0  0  0  0
  264.3960  226.7300  151.5170 C   0  0  2  0  0  0  0  0  0  0  0  0
  264.6930  228.0980  152.1200 C   0  0  0  0  0  0  0  0  0  0  0  0
  263.7670  228.8230  152.4980 O   0  0  0  0  0  0  0  0  0  0  0  0
  264.2290  226.8500  149.9970 C   0  0  0  0  0  0  0  0  0  0  0  0
  263.9270  225.5180  149.3260 C   0  0  0  0  0  0  0  0  0  0  0  0
  263.6260  225.6450  147.8460 C   0  0  0  0  0  0  0  0  0  0  0  0
  263.2150  226.7030  147.3720 O   0  0  0  0  0  0  0  0  0  0  0  0
  263.8290  224.5600  147.1080 N   0  0  0  0  0  0  0  0  0  0  0  0
  265.4110  230.8450  150.8780 N   0  0  0  0  0  0  0  0  0  0  0  0
  264.9100  231.9620  150.0880 C   0  0  2  0  0  0  0  0  0  0  0  0
  263.4170  232.2040  150.2690 C   0  0  0  0  0  0  0  0  0  0  0  0
  262.8690  233.1010  149.6180 O   0  0  0  0  0  0  0  0  0  0  0  0
  265.2070  231.7270  148.6050 C   0  0  2  0  0  0  0  0  0  0  0  0
  264.3490  230.6940  148.1040 O   0  0  0  0  0  0  0  0  0  0  0  0
  266.6560  231.3020  148.4190 C   0  0  0  0  0  0  0  0  0  0  0  0
  262.7510  231.4330  151.1240 N   0  0  0  0  0  0  0  0  0  0  0  0
  261.3230  231.6000  151.3360 C   0  0  2  0  0  0  0  0  0  0  0  0
  261.0310  232.8710  152.1240 C   0  0  0  0  0  0  0  0  0  0  0  0
  261.8260  233.3060  152.9610 O   0  0  0  0  0  0  0  0  0  0  0  0
  260.7510  230.3980  152.0890 C   0  0  0  0  0  0  0  0  0  0  0  0
  260.7700  229.1290  151.2650 C   0  0  0  0  0  0  0  0  0  0  0  0
  261.2430  229.1170  150.1290 O   0  0  0  0  0  0  0  0  0  0  0  0
  260.2590  228.0460  151.8400 N   0  0  0  0  0  0  0  0  0  0  0  0
  259.8720  233.4640  151.8470 N   0  0  0  0  0  0  0  0  0  0  0  0
  259.3680  234.5200  152.7020 C   0  0  0  0  0  0  0  0  0  0  0  0
  259.1250  234.0290  154.1160 C   0  0  0  0  0  0  0  0  0  0  0  0
  259.0570  232.8280  154.3850 O   0  0  0  0  0  0  0  0  0  0  0  0
  258.9850  234.9870  155.0340 N   0  0  0  0  0  0  0  0  0  0  0  0
  258.9090  234.6570  156.4580 C   0  0  2  0  0  0  0  0  0  0  0  0
  257.7620  233.6890  156.7270 C   0  0  0  0  0  0  0  0  0  0  0  0
  257.9180  232.6990  157.4510 O   0  0  0  0  0  0  0  0  0  0  0  0
  258.7800  235.9390  157.2980 C   0  0  0  0  0  0  0  0  0  0  0  0
  258.5730  235.5930  158.7600 C   0  0  0  0  0  0  0  0  0  0  0  0
  260.0150  236.8090  157.1240 C   0  0  0  0  0  0  0  0  0  0  0  0
  256.5950  233.9490  156.1320 N   0  0  0  0  0  0  0  0  0  0  0  0
  255.4420  233.0920  156.3510 C   0  0  0  0  0  0  0  0  0  0  0  0
  255.6340  231.6600  155.8930 C   0  0  0  0  0  0  0  0  0  0  0  0
  254.8950  230.7730  156.3340 O   0  0  0  0  0  0  0  0  0  0  0  0
  256.6160  231.4130  155.0270 N   0  0  0  0  0  0  0  0  0  0  0  0
  256.8970  230.0850  154.5020 C   0  0  2  0  0  0  0  0  0  0  0  0
  258.1570  229.4730  155.0950 C   0  0  0  0  0  0  0  0  0  0  0  0
  258.5260  228.3560  154.7130 O   0  0  0  0  0  0  0  0  0  0  0  0
  257.0150  230.1350  152.9730 C   0  0  0  0  0  0  0  0  0  0  0  0
  255.7330  230.5020  152.2590 C   0  0  0  0  0  0  0  0  0  0  0  0
  255.1730  231.7630  152.4060 C   0  0  0  0  0  0  0  0  0  0  0  0
  255.0920  229.5960  151.4230 C   0  0  0  0  0  0  0  0  0  0  0  0
  254.0060  232.1070  151.7610 C   0  0  0  0  0  0  0  0  0  0  0  0
  253.9200  229.9360  150.7630 C   0  0  0  0  0  0  0  0  0  0  0  0
  253.3830  231.1960  150.9370 C   0  0  0  0  0  0  0  0  0  0  0  0
  252.2190  231.5480  150.2880 O   0  0  0  0  0  0  0  0  0  0  0  0
  2  1  1  1
  3  2  1  0
  4  3  2  0
  5  2  1  0
  6  5  1  0
  7  6  1  0
  8  7  1  0
  9  8  1  0
 10  9  1  0
 11  9  2  0
 13 12  1  1
 14 13  1  0
 15 14  2  0
 16 13  1  0
 17 16  1  0
 18 17  2  0
 19 17  1  0
 20 18  1  0
 21 19  2  0
 22 20  2  0
 22 21  1  0
 23 22  1  0
 25 24  1  6
 26 25  1  0
 27 26  2  0
 28 25  1  0
 29 28  1  0
 30 29  2  0
 31 29  1  0
 32 30  1  0
 33 31  2  0
 34 33  1  0
 34 32  2  0
 35 34  1  0
 37 36  1  6
 38 37  1  0
 39 38  2  0
 40 37  1  0
 41 40  1  0
 42 38  1  0
 43 42  1  0
 44 43  1  0
 45 44  2  0
 43 46  1  1
 47 46  1  0
 48 47  2  0
 49 47  1  0
 50 48  1  0
 51 49  2  0
 52 51  1  0
 52 50  2  0
 53 52  1  0
 54 44  1  0
 55 54  1  0
 56 55  1  0
 57 56  2  0
 58 56  1  0
 59 58  1  0
 60 59  1  0
 61 60  2  0
 59 62  1  1
 63 62  1  0
 64 63  2  0
 65 63  1  0
 66 64  1  0
 67 65  2  0
 68 67  1  0
 68 66  2  0
 69 60  1  0
 70 69  1  0
 71 70  1  0
 72 71  2  0
 70 73  1  6
 74 73  1  0
 75 74  1  0
 76 75  2  0
 77 75  1  0
 79 78  1  1
 80 79  1  0
 81 80  2  0
 82 79  1  0
 83 82  1  0
 82 84  1  1
 85 80  1  0
 86 85  1  0
 87 86  1  0
 88 87  2  0
 86 89  1  1
 90 89  1  0
 91 90  2  0
 92 90  1  0
 93 87  1  0
 94 93  1  0
 95 94  1  0
 96 95  2  0
 97 95  1  0
 98 97  1  6
 99 98  1  0
100 99  2  0
101 98  1  0
102101  1  0
103101  1  0
104 99  1  0
105104  1  0
106105  1  0
107106  2  0
108106  1  0
109108  1  0
110109  1  0
111110  2  0
109112  1  6
113112  1  0
114113  2  0
115113  1  0
116114  1  0
117115  2  0
118117  1  0
118116  2  0
119118  1  0
M  END
$$$$
