
     RDKit          3D

100 99  0  0  0  0  0  0  0  0999 V2000
  -38.5820   17.3720   14.6220 N   0  0  0  0  0  0  0  0  0  0  0  0
  -39.5080   18.4960   14.5580 C   0  0  2  0  0  0  0  0  0  0  0  0
  -38.9320   19.7200   15.2590 C   0  0  0  0  0  0  0  0  0  0  0  0
  -38.0270   19.6230   16.0880 O   0  0  0  0  0  0  0  0  0  0  0  0
  -40.8320   18.1540   15.2420 C   0  0  0  0  0  0  0  0  0  0  0  0
  -41.7860   17.3070   14.4530 C   0  0  0  0  0  0  0  0  0  0  0  0
  -42.9520   16.9080   15.3350 C   0  0  0  0  0  0  0  0  0  0  0  0
  -43.4030   18.0470   16.1200 N   0  0  0  0  0  0  0  0  0  0  0  0
  -44.4110   18.0140   16.9790 C   0  0  0  0  0  0  0  0  0  0  0  0
  -45.1020   16.9070   17.1890 N   0  0  0  0  0  0  0  0  0  0  0  0
  -44.7390   19.1230   17.6360 N   0  0  0  0  0  0  0  0  0  0  0  0
  -39.4380    8.4380   13.3540 N   0  0  0  0  0  0  0  0  0  0  0  0
  -39.0760    8.4670   14.7610 C   0  0  2  0  0  0  0  0  0  0  0  0
  -39.7310    7.2720   15.4320 C   0  0  0  0  0  0  0  0  0  0  0  0
  -40.7940    6.8120   15.0050 O   0  0  0  0  0  0  0  0  0  0  0  0
  -39.5240    9.7710   15.4400 C   0  0  0  0  0  0  0  0  0  0  0  0
  -41.0190    9.9870   15.3940 C   0  0  0  0  0  0  0  0  0  0  0  0
  -41.6030   10.7070   14.3600 C   0  0  0  0  0  0  0  0  0  0  0  0
  -41.8480    9.4610   16.3780 C   0  0  0  0  0  0  0  0  0  0  0  0
  -42.9610   10.9020   14.3100 C   0  0  0  0  0  0  0  0  0  0  0  0
  -43.2110    9.6470   16.3300 C   0  0  0  0  0  0  0  0  0  0  0  0
  -43.7630   10.3670   15.2940 C   0  0  0  0  0  0  0  0  0  0  0  0
  -45.1220   10.5570   15.2470 O   0  0  0  0  0  0  0  0  0  0  0  0
  -43.8460    8.2620   10.7880 N   0  0  0  0  0  0  0  0  0  0  0  0
  -43.2230    9.2650    9.9400 C   0  0  2  0  0  0  0  0  0  0  0  0
  -43.6130   10.6690   10.3840 C   0  0  0  0  0  0  0  0  0  0  0  0
  -44.7120   10.9060   10.8890 O   0  0  0  0  0  0  0  0  0  0  0  0
  -43.6140    9.0540    8.4760 C   0  0  0  0  0  0  0  0  0  0  0  0
  -43.1630   10.1330    7.6730 O   0  0  0  0  0  0  0  0  0  0  0  0
  -42.6880   11.6060   10.2000 N   0  0  0  0  0  0  0  0  0  0  0  0
  -42.9950   13.0040   10.4610 C   0  0  2  0  0  0  0  0  0  0  0  0
  -43.8440   13.6270    9.3590 C   0  0  0  0  0  0  0  0  0  0  0  0
  -44.4830   14.6560    9.5990 O   0  0  0  0  0  0  0  0  0  0  0  0
  -41.7080   13.8100   10.5990 C   0  0  0  0  0  0  0  0  0  0  0  0
  -40.9410   13.6360   11.8900 C   0  0  0  0  0  0  0  0  0  0  0  0
  -41.4060   14.1950   13.0690 C   0  0  0  0  0  0  0  0  0  0  0  0
  -39.7270   12.9570   11.9200 C   0  0  0  0  0  0  0  0  0  0  0  0
  -40.7070   14.0600   14.2490 C   0  0  0  0  0  0  0  0  0  0  0  0
  -39.0150   12.8170   13.1000 C   0  0  0  0  0  0  0  0  0  0  0  0
  -39.5100   13.3760   14.2630 C   0  0  0  0  0  0  0  0  0  0  0  0
  -38.8190   13.2520   15.4530 O   0  0  0  0  0  0  0  0  0  0  0  0
  -43.8320   13.0380    8.1630 N   0  0  0  0  0  0  0  0  0  0  0  0
  -44.5650   13.5500    7.0150 C   0  0  0  0  0  0  0  0  0  0  0  0
  -44.3290   15.0090    6.6910 C   0  0  0  0  0  0  0  0  0  0  0  0
  -45.2670   15.6950    6.2800 O   0  0  0  0  0  0  0  0  0  0  0  0
  -44.1530   18.5600    5.5820 N   0  0  0  0  0  0  0  0  0  0  0  0
  -44.7330   19.3120    4.4840 C   0  0  2  0  0  0  0  0  0  0  0  0
  -44.3470   20.7780    4.6000 C   0  0  0  0  0  0  0  0  0  0  0  0
  -44.2660   21.3030    5.7130 O   0  0  0  0  0  0  0  0  0  0  0  0
  -46.2560   19.2000    4.4750 C   0  0  0  0  0  0  0  0  0  0  0  0
  -46.7600   17.8160    4.2010 C   0  0  0  0  0  0  0  0  0  0  0  0
  -48.2440   17.7050    4.4280 C   0  0  0  0  0  0  0  0  0  0  0  0
  -48.8130   18.4340    5.2390 O   0  0  0  0  0  0  0  0  0  0  0  0
  -48.8850   16.7950    3.7090 N   0  0  0  0  0  0  0  0  0  0  0  0
  -45.9150   23.4920    4.2310 N   0  0  0  0  0  0  0  0  0  0  0  0
  -46.9410   24.3330    4.8390 C   0  0  2  0  0  0  0  0  0  0  0  0
  -47.2090   23.9850    6.2970 C   0  0  0  0  0  0  0  0  0  0  0  0
  -48.1670   24.5020    6.8800 O   0  0  0  0  0  0  0  0  0  0  0  0
  -48.2480   24.2230    4.0540 C   0  0  2  0  0  0  0  0  0  0  0  0
  -48.7600   22.8870    4.1700 O   0  0  0  0  0  0  0  0  0  0  0  0
  -48.0130   24.5600    2.5930 C   0  0  0  0  0  0  0  0  0  0  0  0
  -46.4060   23.1070    6.8870 N   0  0  0  0  0  0  0  0  0  0  0  0
  -46.5140   22.8140    8.3060 C   0  0  2  0  0  0  0  0  0  0  0  0
  -46.3340   24.0810    9.1380 C   0  0  0  0  0  0  0  0  0  0  0  0
  -45.7900   25.0900    8.6790 O   0  0  0  0  0  0  0  0  0  0  0  0
  -45.4530   21.8020    8.7190 C   0  0  0  0  0  0  0  0  0  0  0  0
  -45.8750   20.3600    8.6510 C   0  0  0  0  0  0  0  0  0  0  0  0
  -47.0290   19.9750    7.9850 C   0  0  0  0  0  0  0  0  0  0  0  0
  -45.1140   19.3780    9.2740 C   0  0  0  0  0  0  0  0  0  0  0  0
  -47.4070   18.6410    7.9390 C   0  0  0  0  0  0  0  0  0  0  0  0
  -45.4830   18.0500    9.2430 C   0  0  0  0  0  0  0  0  0  0  0  0
  -46.6290   17.6810    8.5780 C   0  0  0  0  0  0  0  0  0  0  0  0
  -46.9850   16.3470    8.5530 O   0  0  0  0  0  0  0  0  0  0  0  0
  -46.8020   24.0190   10.3850 N   0  0  0  0  0  0  0  0  0  0  0  0
  -46.3830   24.9970   11.3660 C   0  0  0  0  0  0  0  0  0  0  0  0
  -44.9450   24.7620   11.7890 C   0  0  0  0  0  0  0  0  0  0  0  0
  -44.4140   23.6530   11.6800 O   0  0  0  0  0  0  0  0  0  0  0  0
  -44.3050   25.8270   12.2830 N   0  0  0  0  0  0  0  0  0  0  0  0
  -42.8740   25.7580   12.5870 C   0  0  2  0  0  0  0  0  0  0  0  0
  -42.5700   24.6050   13.5360 C   0  0  0  0  0  0  0  0  0  0  0  0
  -41.5720   23.8950   13.3710 O   0  0  0  0  0  0  0  0  0  0  0  0
  -42.3790   27.0990   13.1560 C   0  0  0  0  0  0  0  0  0  0  0  0
  -40.9690   26.9520   13.6960 C   0  0  0  0  0  0  0  0  0  0  0  0
  -42.4190   28.1620   12.0790 C   0  0  0  0  0  0  0  0  0  0  0  0
  -43.4340   24.3860   14.5280 N   0  0  0  0  0  0  0  0  0  0  0  0
  -43.2170   23.3150   15.4830 C   0  0  0  0  0  0  0  0  0  0  0  0
  -43.2260   21.9320   14.8730 C   0  0  0  0  0  0  0  0  0  0  0  0
  -42.6370   21.0080   15.4480 O   0  0  0  0  0  0  0  0  0  0  0  0
  -43.8760   21.7640   13.7190 N   0  0  0  0  0  0  0  0  0  0  0  0
  -43.9210   20.4800   13.0330 C   0  0  2  0  0  0  0  0  0  0  0  0
  -42.9530   20.3900   11.8580 C   0  0  0  0  0  0  0  0  0  0  0  0
  -42.8200   19.3090   11.2700 O   0  0  0  0  0  0  0  0  0  0  0  0
  -45.3430   20.1920   12.5360 C   0  0  0  0  0  0  0  0  0  0  0  0
  -46.3230   19.7630   13.6050 C   0  0  0  0  0  0  0  0  0  0  0  0
  -47.0510   20.7040   14.3190 C   0  0  0  0  0  0  0  0  0  0  0  0
  -46.5320   18.4150   13.8880 C   0  0  0  0  0  0  0  0  0  0  0  0
  -47.9590   20.3220   15.2950 C   0  0  0  0  0  0  0  0  0  0  0  0
  -47.4390   18.0190   14.8650 C   0  0  0  0  0  0  0  0  0  0  0  0
  -48.1520   18.9790   15.5650 C   0  0  0  0  0  0  0  0  0  0  0  0
  -49.0620   18.6060   16.5370 O   0  0  0  0  0  0  0  0  0  0  0  0
  2  1  1  1
  3  2  1  0
  4  3  2  0
  5  2  1  0
  6  5  1  0
  7  6  1  0
  8  7  1  0
  9  8  1  0
 10  9  1  0
 11  9  2  0
 13 12  1  6
 14 13  1  0
 15 14  2  0
 16 13  1  0
 17 16  1  0
 18 17  2  0
 19 17  1  0
 20 18  1  0
 21 19  2  0
 22 21  1  0
 22 20  2  0
 23 22  1  0
 25 24  1  1
 26 25  1  0
 27 26  2  0
 28 25  1  0
 29 28  1  0
 30 26  1  0
 31 30  1  0
 32 31  1  0
 33 32  2  0
 31 34  1  6
 35 34  1  0
 36 35  2  0
 37 35  1  0
 38 36  1  0
 39 37  2  0
 40 39  1  0
 40 38  2  0
 41 40  1  0
 42 32  1  0
 43 42  1  0
 44 43  1  0
 45 44  2  0
 47 46  1  1
 48 47  1  0
 49 48  2  0
 50 47  1  0
 51 50  1  0
 52 51  1  0
 53 52  2  0
 54 52  1  0
 56 55  1  6
 57 56  1  0
 58 57  2  0
 59 56  1  0
 60 59  1  0
 59 61  1  6
 62 57  1  0
 63 62  1  0
 64 63  1  0
 65 64  2  0
 63 66  1  1
 67 66  1  0
 68 67  2  0
 69 67  1  0
 70 68  1  0
 71 69  2  0
 72 71  1  0
 72 70  2  0
 73 72  1  0
 74 64  1  0
 75 74  1  0
 76 75  1  0
 77 76  2  0
 78 76  1  0
 79 78  1  1
 80 79  1  0
 81 80  2  0
 82 79  1  0
 83 82  1  0
 84 82  1  0
 85 80  1  0
 86 85  1  0
 87 86  1  0
 88 87  2  0
 89 87  1  0
 90 89  1  0
 91 90  1  0
 92 91  2  0
 90 93  1  6
 94 93  1  0
 95 94  2  0
 96 94  1  0
 97 95  1  0
 98 96  2  0
 99 98  1  0
 99 97  2  0
100 99  1  0
M  END
$$$$
