
     RDKit          3D

119119  0  0  0  0  0  0  0  0999 V2000
   -2.5310   56.2820    3.7080 N   0  0  0  0  0  0  0  0  0  0  0  0
   -3.6020   55.6390    2.9620 C   0  0  2  0  0  0  0  0  0  0  0  0
   -4.8190   55.4160    3.8470 C   0  0  0  0  0  0  0  0  0  0  0  0
   -4.7180   55.3280    5.0750 O   0  0  0  0  0  0  0  0  0  0  0  0
   -3.1540   54.2860    2.4200 C   0  0  0  0  0  0  0  0  0  0  0  0
   -2.5080   54.2870    1.0610 C   0  0  0  0  0  0  0  0  0  0  0  0
   -2.0470   52.8790    0.7320 C   0  0  0  0  0  0  0  0  0  0  0  0
   -3.1600   51.9380    0.7770 N   0  0  0  0  0  0  0  0  0  0  0  0
   -3.1270   50.7140    0.2700 C   0  0  0  0  0  0  0  0  0  0  0  0
   -2.0400   50.2380   -0.3140 N   0  0  0  0  0  0  0  0  0  0  0  0
   -4.2140   49.9520    0.3420 N   0  0  0  0  0  0  0  0  0  0  0  0
    3.1900   62.2370   -6.3490 N   0  0  0  0  0  0  0  0  0  0  0  0
    4.3260   61.5340   -5.7780 C   0  0  2  0  0  0  0  0  0  0  0  0
    5.0450   62.3490   -4.7130 C   0  0  0  0  0  0  0  0  0  0  0  0
    6.1760   62.0150   -4.3480 O   0  0  0  0  0  0  0  0  0  0  0  0
    5.2900   61.1180   -6.8880 C   0  0  0  0  0  0  0  0  0  0  0  0
    4.6190   60.2570   -7.9340 C   0  0  0  0  0  0  0  0  0  0  0  0
    4.4560   58.8890   -7.7360 C   0  0  0  0  0  0  0  0  0  0  0  0
    4.1260   60.8130   -9.1090 C   0  0  0  0  0  0  0  0  0  0  0  0
    3.8330   58.0990   -8.6830 C   0  0  0  0  0  0  0  0  0  0  0  0
    3.5020   60.0310  -10.0630 C   0  0  0  0  0  0  0  0  0  0  0  0
    3.3580   58.6750   -9.8430 C   0  0  0  0  0  0  0  0  0  0  0  0
    2.7390   57.8900  -10.7870 O   0  0  0  0  0  0  0  0  0  0  0  0
    6.2730   57.1910    2.0990 N   0  0  0  0  0  0  0  0  0  0  0  0
    6.3160   56.3670    3.2940 C   0  0  2  0  0  0  0  0  0  0  0  0
    7.6020   55.5530    3.2660 C   0  0  0  0  0  0  0  0  0  0  0  0
    8.2150   55.3640    2.2120 O   0  0  0  0  0  0  0  0  0  0  0  0
    5.1020   55.4350    3.3950 C   0  0  0  0  0  0  0  0  0  0  0  0
    4.9930   54.4520    2.2520 C   0  0  0  0  0  0  0  0  0  0  0  0
    4.3430   54.7990    1.0740 C   0  0  0  0  0  0  0  0  0  0  0  0
    5.5320   53.1750    2.3520 C   0  0  0  0  0  0  0  0  0  0  0  0
    4.2380   53.9090    0.0270 C   0  0  0  0  0  0  0  0  0  0  0  0
    5.4350   52.2770    1.3110 C   0  0  0  0  0  0  0  0  0  0  0  0
    4.7870   52.6490    0.1530 C   0  0  0  0  0  0  0  0  0  0  0  0
    4.6850   51.7570   -0.8880 O   0  0  0  0  0  0  0  0  0  0  0  0
    6.6960   56.1610   -2.8800 N   0  0  0  0  0  0  0  0  0  0  0  0
    5.6360   57.1430   -3.0480 C   0  0  2  0  0  0  0  0  0  0  0  0
    4.2670   56.4800   -3.0180 C   0  0  0  0  0  0  0  0  0  0  0  0
    4.0790   55.3820   -3.5470 O   0  0  0  0  0  0  0  0  0  0  0  0
    5.7990   57.9090   -4.3590 C   0  0  0  0  0  0  0  0  0  0  0  0
    4.6900   58.7600   -4.5640 O   0  0  0  0  0  0  0  0  0  0  0  0
    3.3100   57.1670   -2.3940 N   0  0  0  0  0  0  0  0  0  0  0  0
    1.9310   56.7020   -2.4210 C   0  0  2  0  0  0  0  0  0  0  0  0
    1.3450   56.8040   -3.8220 C   0  0  0  0  0  0  0  0  0  0  0  0
    0.5520   55.9500   -4.2360 O   0  0  0  0  0  0  0  0  0  0  0  0
    1.0940   57.5080   -1.4330 C   0  0  0  0  0  0  0  0  0  0  0  0
    1.1900   57.0390   -0.0010 C   0  0  0  0  0  0  0  0  0  0  0  0
    0.5800   55.8580    0.4000 C   0  0  0  0  0  0  0  0  0  0  0  0
    1.8680   57.7880    0.9580 C   0  0  0  0  0  0  0  0  0  0  0  0
    0.6500   55.4280    1.7070 C   0  0  0  0  0  0  0  0  0  0  0  0
    1.9410   57.3640    2.2730 C   0  0  0  0  0  0  0  0  0  0  0  0
    1.3290   56.1830    2.6380 C   0  0  0  0  0  0  0  0  0  0  0  0
    1.3930   55.7460    3.9400 O   0  0  0  0  0  0  0  0  0  0  0  0
    1.7270   57.8380   -4.5660 N   0  0  0  0  0  0  0  0  0  0  0  0
    1.2340   58.0260   -5.9220 C   0  0  0  0  0  0  0  0  0  0  0  0
   -0.2630   58.2160   -6.0000 C   0  0  0  0  0  0  0  0  0  0  0  0
   -0.9040   57.6980   -6.9230 O   0  0  0  0  0  0  0  0  0  0  0  0
   -0.8390   58.9440   -5.0410 N   0  0  0  0  0  0  0  0  0  0  0  0
   -2.2830   59.1440   -4.9560 C   0  0  2  0  0  0  0  0  0  0  0  0
   -2.8680   59.6650   -6.2640 C   0  0  0  0  0  0  0  0  0  0  0  0
   -2.5650   60.7840   -6.6850 O   0  0  0  0  0  0  0  0  0  0  0  0
   -2.6260   60.1230   -3.8280 C   0  0  0  0  0  0  0  0  0  0  0  0
   -2.2820   59.6260   -2.4520 C   0  0  0  0  0  0  0  0  0  0  0  0
   -2.8510   58.4640   -1.9530 C   0  0  0  0  0  0  0  0  0  0  0  0
   -1.4150   60.3430   -1.6430 C   0  0  0  0  0  0  0  0  0  0  0  0
   -2.5420   58.0130   -0.6810 C   0  0  0  0  0  0  0  0  0  0  0  0
   -1.1080   59.9020   -0.3670 C   0  0  0  0  0  0  0  0  0  0  0  0
   -1.6730   58.7340    0.1160 C   0  0  0  0  0  0  0  0  0  0  0  0
   -3.7020   58.8520   -6.9150 N   0  0  0  0  0  0  0  0  0  0  0  0
   -4.4790   59.2580   -8.0760 C   0  0  2  0  0  0  0  0  0  0  0  0
   -5.9450   59.4000   -7.6850 C   0  0  0  0  0  0  0  0  0  0  0  0
   -6.4550   58.5820   -6.9120 O   0  0  0  0  0  0  0  0  0  0  0  0
   -4.3570   58.2410   -9.2190 C   0  0  0  0  0  0  0  0  0  0  0  0
   -2.9330   57.9950   -9.6930 C   0  0  0  0  0  0  0  0  0  0  0  0
   -2.8490   56.9150  -10.7540 C   0  0  0  0  0  0  0  0  0  0  0  0
   -3.8550   56.5390  -11.3550 O   0  0  0  0  0  0  0  0  0  0  0  0
   -1.6440   56.4050  -10.9860 N   0  0  0  0  0  0  0  0  0  0  0  0
   -8.6420   58.5980   -8.9720 N   0  0  0  0  0  0  0  0  0  0  0  0
   -9.4710   57.4430   -9.2940 C   0  0  2  0  0  0  0  0  0  0  0  0
   -9.1980   56.2430   -8.3900 C   0  0  0  0  0  0  0  0  0  0  0  0
   -9.7350   55.1610   -8.6480 O   0  0  0  0  0  0  0  0  0  0  0  0
   -9.2690   57.0500  -10.7610 C   0  0  2  0  0  0  0  0  0  0  0  0
   -7.8940   56.7160  -10.9830 O   0  0  0  0  0  0  0  0  0  0  0  0
   -9.6580   58.1990  -11.6760 C   0  0  0  0  0  0  0  0  0  0  0  0
   -8.3860   56.4130   -7.3480 N   0  0  0  0  0  0  0  0  0  0  0  0
   -8.0430   55.3090   -6.4590 C   0  0  2  0  0  0  0  0  0  0  0  0
   -9.2640   54.8140   -5.6910 C   0  0  0  0  0  0  0  0  0  0  0  0
  -10.1790   55.5790   -5.3680 O   0  0  0  0  0  0  0  0  0  0  0  0
   -6.9690   55.7350   -5.4540 C   0  0  0  0  0  0  0  0  0  0  0  0
   -5.5670   55.6630   -6.0180 C   0  0  0  0  0  0  0  0  0  0  0  0
   -5.3470   55.1570   -7.1180 O   0  0  0  0  0  0  0  0  0  0  0  0
   -4.6030   56.1590   -5.2530 N   0  0  0  0  0  0  0  0  0  0  0  0
   -9.2620   53.5170   -5.3840 N   0  0  0  0  0  0  0  0  0  0  0  0
  -10.1930   52.9810   -4.4120 C   0  0  0  0  0  0  0  0  0  0  0  0
   -9.9840   53.6530   -3.0720 C   0  0  0  0  0  0  0  0  0  0  0  0
   -8.8900   54.1420   -2.7910 O   0  0  0  0  0  0  0  0  0  0  0  0
  -11.0340   53.6870   -2.2420 N   0  0  0  0  0  0  0  0  0  0  0  0
  -10.9960   54.4580   -0.9970 C   0  0  2  0  0  0  0  0  0  0  0  0
   -9.8190   54.0380   -0.1250 C   0  0  0  0  0  0  0  0  0  0  0  0
   -9.1320   54.8800    0.4660 O   0  0  0  0  0  0  0  0  0  0  0  0
  -12.3340   54.3160   -0.2480 C   0  0  0  0  0  0  0  0  0  0  0  0
  -12.2380   54.9020    1.1530 C   0  0  0  0  0  0  0  0  0  0  0  0
  -13.4490   54.9900   -1.0340 C   0  0  0  0  0  0  0  0  0  0  0  0
   -9.5670   52.7300   -0.0330 N   0  0  0  0  0  0  0  0  0  0  0  0
   -8.4450   52.2390    0.7470 C   0  0  0  0  0  0  0  0  0  0  0  0
   -7.0970   52.7610    0.2920 C   0  0  0  0  0  0  0  0  0  0  0  0
   -6.1660   52.8270    1.0970 O   0  0  0  0  0  0  0  0  0  0  0  0
   -6.9730   53.1370   -0.9840 N   0  0  0  0  0  0  0  0  0  0  0  0
   -5.7520   53.7140   -1.5320 C   0  0  2  0  0  0  0  0  0  0  0  0
   -5.7660   55.2390   -1.5540 C   0  0  0  0  0  0  0  0  0  0  0  0
   -4.7790   55.8440   -1.9830 O   0  0  0  0  0  0  0  0  0  0  0  0
   -5.5140   53.2050   -2.9580 C   0  0  0  0  0  0  0  0  0  0  0  0
   -5.0310   51.7730   -3.0830 C   0  0  0  0  0  0  0  0  0  0  0  0
   -5.9320   50.7210   -3.1910 C   0  0  0  0  0  0  0  0  0  0  0  0
   -3.6730   51.4760   -3.1280 C   0  0  0  0  0  0  0  0  0  0  0  0
   -5.4980   49.4110   -3.3240 C   0  0  0  0  0  0  0  0  0  0  0  0
   -3.2290   50.1700   -3.2620 C   0  0  0  0  0  0  0  0  0  0  0  0
   -4.1460   49.1450   -3.3570 C   0  0  0  0  0  0  0  0  0  0  0  0
   -3.7040   47.8490   -3.4900 O   0  0  0  0  0  0  0  0  0  0  0  0
  2  1  1  1
  3  2  1  0
  4  3  2  0
  5  2  1  0
  6  5  1  0
  7  6  1  0
  8  7  1  0
  9  8  1  0
 10  9  1  0
 11  9  2  0
 13 12  1  6
 14 13  1  0
 15 14  2  0
 16 13  1  0
 17 16  1  0
 18 17  2  0
 19 17  1  0
 20 18  1  0
 21 19  2  0
 22 20  2  0
 22 21  1  0
 23 22  1  0
 25 24  1  6
 26 25  1  0
 27 26  2  0
 28 25  1  0
 29 28  1  0
 30 29  2  0
 31 29  1  0
 32 30  1  0
 33 31  2  0
 34 33  1  0
 34 32  2  0
 35 34  1  0
 37 36  1  6
 38 37  1  0
 39 38  2  0
 40 37  1  0
 41 40  1  0
 42 38  1  0
 43 42  1  0
 44 43  1  0
 45 44  2  0
 43 46  1  1
 47 46  1  0
 48 47  2  0
 49 47  1  0
 50 48  1  0
 51 49  2  0
 52 51  1  0
 52 50  2  0
 53 52  1  0
 54 44  1  0
 55 54  1  0
 56 55  1  0
 57 56  2  0
 58 56  1  0
 59 58  1  0
 60 59  1  0
 61 60  2  0
 59 62  1  1
 63 62  1  0
 64 63  2  0
 65 63  1  0
 66 64  1  0
 67 65  2  0
 68 67  1  0
 68 66  2  0
 69 60  1  0
 70 69  1  0
 71 70  1  0
 72 71  2  0
 70 73  1  6
 74 73  1  0
 75 74  1  0
 76 75  2  0
 77 75  1  0
 79 78  1  1
 80 79  1  0
 81 80  2  0
 82 79  1  0
 83 82  1  0
 82 84  1  6
 85 80  1  0
 86 85  1  0
 87 86  1  0
 88 87  2  0
 86 89  1  1
 90 89  1  0
 91 90  2  0
 92 90  1  0
 93 87  1  0
 94 93  1  0
 95 94  1  0
 96 95  2  0
 97 95  1  0
 98 97  1  6
 99 98  1  0
100 99  2  0
101 98  1  0
102101  1  0
103101  1  0
104 99  1  0
105104  1  0
106105  1  0
107106  2  0
108106  1  0
109108  1  0
110109  1  0
111110  2  0
109112  1  6
113112  1  0
114113  2  0
115113  1  0
116114  1  0
117115  2  0
118116  2  0
118117  1  0
119118  1  0
M  END
$$$$
