
     RDKit          3D

147143  0  0  0  0  0  0  0  0999 V2000
  114.9820  127.6740  158.7340 N   0  0  0  0  0  0  0  0  0  0  0  0
  115.8000  128.8770  158.7250 C   0  0  2  0  0  0  0  0  0  0  0  0
  114.9810  130.1570  158.6320 C   0  0  0  0  0  0  0  0  0  0  0  0
  115.5460  131.2450  158.7820 O   0  0  0  0  0  0  0  0  0  0  0  0
  116.7960  128.8270  157.5630 C   0  0  0  0  0  0  0  0  0  0  0  0
  113.6720  130.0520  158.3960 N   0  0  0  0  0  0  0  0  0  0  0  0
  112.8040  131.2220  158.3300 C   0  0  2  0  0  0  0  0  0  0  0  0
  112.8370  132.0360  159.6220 C   0  0  0  0  0  0  0  0  0  0  0  0
  112.5230  133.2320  159.6020 O   0  0  0  0  0  0  0  0  0  0  0  0
  111.3800  130.7580  157.9900 C   0  0  2  0  0  0  0  0  0  0  0  0
  111.3690  130.1900  156.6740 O   0  0  0  0  0  0  0  0  0  0  0  0
  110.3770  131.9050  158.0310 C   0  0  0  0  0  0  0  0  0  0  0  0
  113.2990  131.4430  160.7210 N   0  0  0  0  0  0  0  0  0  0  0  0
  113.3270  132.0970  162.0140 C   0  0  0  0  0  0  0  0  0  0  0  0
  114.6900  132.7080  162.2560 C   0  0  0  0  0  0  0  0  0  0  0  0
  114.9450  133.8310  161.8140 O   0  0  0  0  0  0  0  0  0  0  0  0
  115.5640  132.0180  162.9790 N   0  0  0  0  0  0  0  0  0  0  0  0
  116.9700  132.3910  163.0550 C   0  0  2  0  0  0  0  0  0  0  0  0
  117.7980  131.3070  162.3810 C   0  0  0  0  0  0  0  0  0  0  0  0
  117.8110  130.1590  162.8370 O   0  0  0  0  0  0  0  0  0  0  0  0
  117.4230  132.5850  164.5010 C   0  0  0  0  0  0  0  0  0  0  0  0
  118.8290  133.1480  164.5980 C   0  0  0  0  0  0  0  0  0  0  0  0
  119.6360  132.7110  165.4200 O   0  0  0  0  0  0  0  0  0  0  0  0
  119.1320  134.1210  163.7470 N   0  0  0  0  0  0  0  0  0  0  0  0
  118.4820  131.6700  161.3030 N   0  0  0  0  0  0  0  0  0  0  0  0
  119.3770  130.7320  160.6340 C   0  0  2  0  0  0  0  0  0  0  0  0
  120.5940  130.4690  161.5090 C   0  0  0  0  0  0  0  0  0  0  0  0
  121.3200  131.4140  161.8470 O   0  0  0  0  0  0  0  0  0  0  0  0
  119.8140  131.2750  159.2760 C   0  0  0  0  0  0  0  0  0  0  0  0
  120.4180  130.2040  158.3860 C   0  0  0  0  0  0  0  0  0  0  0  0
  120.5310  129.0450  158.7820 O   0  0  0  0  0  0  0  0  0  0  0  0
  120.8070  130.5860  157.1760 N   0  0  0  0  0  0  0  0  0  0  0  0
  125.5910  130.2570  159.5100 N   0  0  0  0  0  0  0  0  0  0  0  0
  125.5590  130.8080  158.1580 C   0  0  2  0  0  0  0  0  0  0  0  0
  126.6090  130.1740  157.2550 C   0  0  0  0  0  0  0  0  0  0  0  0
  127.4690  129.4240  157.7240 O   0  0  0  0  0  0  0  0  0  0  0  0
  125.7760  132.3190  158.1890 C   0  0  0  0  0  0  0  0  0  0  0  0
  126.8240  132.7310  159.1910 C   0  0  0  0  0  0  0  0  0  0  0  0
  127.1890  131.9580  160.0690 O   0  0  0  0  0  0  0  0  0  0  0  0
  127.3240  133.9510  159.0600 N   0  0  0  0  0  0  0  0  0  0  0  0
  126.5400  130.4830  155.9640 N   0  0  0  0  0  0  0  0  0  0  0  0
  127.1560  129.7960  154.8260 C   0  0  2  0  0  0  0  0  0  0  0  0
  126.3110  128.6010  154.4120 C   0  0  0  0  0  0  0  0  0  0  0  0
  126.7140  127.8660  153.5110 O   0  0  0  0  0  0  0  0  0  0  0  0
  128.5940  129.3070  155.0680 C   0  0  0  0  0  0  0  0  0  0  0  0
  129.5520  130.3640  155.5500 C   0  0  0  0  0  0  0  0  0  0  0  0
  129.7700  131.5190  154.8180 C   0  0  0  0  0  0  0  0  0  0  0  0
  130.2520  130.1990  156.7340 C   0  0  0  0  0  0  0  0  0  0  0  0
  130.6470  132.4800  155.2580 C   0  0  0  0  0  0  0  0  0  0  0  0
  131.1300  131.1500  157.1780 C   0  0  0  0  0  0  0  0  0  0  0  0
  131.3240  132.2890  156.4410 C   0  0  0  0  0  0  0  0  0  0  0  0
  132.2030  133.2440  156.8920 O   0  0  0  0  0  0  0  0  0  0  0  0
  125.1480  128.3910  155.0260 N   0  0  0  0  0  0  0  0  0  0  0  0
  124.3460  127.2120  154.7360 C   0  0  2  0  0  0  0  0  0  0  0  0
  123.6090  127.3310  153.4060 C   0  0  0  0  0  0  0  0  0  0  0  0
  123.5910  126.3790  152.6180 O   0  0  0  0  0  0  0  0  0  0  0  0
  123.3570  126.9680  155.8700 C   0  0  0  0  0  0  0  0  0  0  0  0
  122.9960  128.4870  153.1400 N   0  0  0  0  0  0  0  0  0  0  0  0
  122.0850  128.6730  152.0060 C   0  0  2  0  0  0  0  0  0  0  0  0
  120.9200  127.6840  152.1010 C   0  0  0  0  0  0  0  0  0  0  0  0
  120.7570  126.7780  151.2840 O   0  0  0  0  0  0  0  0  0  0  0  0
  122.8230  128.5520  150.6670 C   0  0  2  0  0  0  0  0  0  0  0  0
  123.9400  129.4460  150.6610 O   0  0  0  0  0  0  0  0  0  0  0  0
  121.9110  128.9370  149.5140 C   0  0  0  0  0  0  0  0  0  0  0  0
  117.5520  128.3100  152.2450 N   0  0  0  0  0  0  0  0  0  0  0  0
  116.2400  128.7570  151.8050 C   0  0  2  0  0  0  0  0  0  0  0  0
  116.3670  129.3600  150.4140 C   0  0  0  0  0  0  0  0  0  0  0  0
  117.4670  129.6070  149.9210 O   0  0  0  0  0  0  0  0  0  0  0  0
  115.6310  129.7550  152.7940 C   0  0  2  0  0  0  0  0  0  0  0  0
  114.2110  129.7800  152.6320 O   0  0  0  0  0  0  0  0  0  0  0  0
  116.1720  131.1360  152.5630 C   0  0  0  0  0  0  0  0  0  0  0  0
  115.1510  132.3320  149.4380 N   0  0  0  0  0  0  0  0  0  0  0  0
  115.3890  133.7700  149.4600 C   0  0  2  0  0  0  0  0  0  0  0  0
  116.8650  134.0890  149.6540 C   0  0  0  0  0  0  0  0  0  0  0  0
  117.3790  135.0400  149.0590 O   0  0  0  0  0  0  0  0  0  0  0  0
  114.5500  134.4200  150.5550 C   0  0  0  0  0  0  0  0  0  0  0  0
  113.0870  134.0240  150.5170 C   0  0  0  0  0  0  0  0  0  0  0  0
  112.3380  134.6630  149.3650 C   0  0  0  0  0  0  0  0  0  0  0  0
  111.1610  134.3120  149.1430 O   0  0  0  0  0  0  0  0  0  0  0  0
  112.9230  135.5250  148.6800 O   0  0  0  0  0  0  0  0  0  0  0  0
  117.5610  133.3150  150.4880 N   0  0  0  0  0  0  0  0  0  0  0  0
  119.0010  133.4950  150.6390 C   0  0  2  0  0  0  0  0  0  0  0  0
  119.7160  133.2650  149.3200 C   0  0  0  0  0  0  0  0  0  0  0  0
  120.6010  134.0360  148.9320 O   0  0  0  0  0  0  0  0  0  0  0  0
  119.5390  132.5420  151.7000 C   0  0  0  0  0  0  0  0  0  0  0  0
  119.2370  132.9580  153.1090 C   0  0  0  0  0  0  0  0  0  0  0  0
  119.5920  131.8850  154.1030 C   0  0  0  0  0  0  0  0  0  0  0  0
  120.3950  130.9990  153.7500 O   0  0  0  0  0  0  0  0  0  0  0  0
  119.0670  131.9200  155.2340 O   0  0  0  0  0  0  0  0  0  0  0  0
  119.3510  132.1930  148.6230 N   0  0  0  0  0  0  0  0  0  0  0  0
  119.9320  131.9310  147.3170 C   0  0  2  0  0  0  0  0  0  0  0  0
  119.5820  133.0340  146.3330 C   0  0  0  0  0  0  0  0  0  0  0  0
  120.4010  133.3980  145.4850 O   0  0  0  0  0  0  0  0  0  0  0  0
  119.4600  130.5760  146.7980 C   0  0  0  0  0  0  0  0  0  0  0  0
  119.9040  130.2940  145.3890 C   0  0  0  0  0  0  0  0  0  0  0  0
  121.1590  129.7730  145.1320 C   0  0  0  0  0  0  0  0  0  0  0  0
  119.0770  130.5570  144.3160 C   0  0  0  0  0  0  0  0  0  0  0  0
  121.5710  129.5190  143.8530 C   0  0  0  0  0  0  0  0  0  0  0  0
  119.4830  130.3090  143.0360 C   0  0  0  0  0  0  0  0  0  0  0  0
  120.7300  129.7890  142.8080 C   0  0  0  0  0  0  0  0  0  0  0  0
  121.1440  129.5390  141.5240 O   0  0  0  0  0  0  0  0  0  0  0  0
  119.0220  136.2480  146.9920 N   0  0  0  0  0  0  0  0  0  0  0  0
  119.7600  137.4730  147.2670 C   0  0  2  0  0  0  0  0  0  0  0  0
  121.2510  137.2940  147.0100 C   0  0  0  0  0  0  0  0  0  0  0  0
  121.9360  138.2550  146.6480 O   0  0  0  0  0  0  0  0  0  0  0  0
  119.4840  137.9530  148.6960 C   0  0  0  0  0  0  0  0  0  0  0  0
  120.1710  139.2680  148.9370 C   0  0  0  0  0  0  0  0  0  0  0  0
  118.0070  138.1190  148.9000 C   0  0  0  0  0  0  0  0  0  0  0  0
  121.7810  136.0790  147.1680 N   0  0  0  0  0  0  0  0  0  0  0  0
  123.1860  135.8540  146.8430 C   0  0  2  0  0  0  0  0  0  0  0  0
  123.4800  136.1210  145.3740 C   0  0  0  0  0  0  0  0  0  0  0  0
  124.6070  136.4860  145.0270 O   0  0  0  0  0  0  0  0  0  0  0  0
  123.5920  134.4310  147.2090 C   0  0  0  0  0  0  0  0  0  0  0  0
  123.9160  134.2370  148.6800 C   0  0  0  0  0  0  0  0  0  0  0  0
  124.1930  132.7800  148.9770 C   0  0  0  0  0  0  0  0  0  0  0  0
  124.7840  132.5960  150.3550 C   0  0  0  0  0  0  0  0  0  0  0  0
  123.8020  132.0060  151.3040 N   0  0  0  0  0  0  0  0  0  0  0  0
  119.1290  139.5710  143.3720 N   0  0  0  0  0  0  0  0  0  0  0  0
  117.7840  139.5230  142.8140 C   0  0  2  0  0  0  0  0  0  0  0  0
  116.8220  140.1170  143.8320 C   0  0  0  0  0  0  0  0  0  0  0  0
  116.8960  139.7940  145.0210 O   0  0  0  0  0  0  0  0  0  0  0  0
  117.3790  138.0800  142.4490 C   0  0  2  0  0  0  0  0  0  0  0  0
  118.0260  137.6630  141.1280 C   0  0  0  0  0  0  0  0  0  0  0  0
  115.8710  137.9350  142.3770 C   0  0  0  0  0  0  0  0  0  0  0  0
  117.7730  136.2290  140.7480 C   0  0  0  0  0  0  0  0  0  0  0  0
  115.9260  140.9890  143.3720 N   0  0  0  0  0  0  0  0  0  0  0  0
  114.9610  141.6210  144.2620 C   0  0  2  0  0  0  0  0  0  0  0  0
  113.9240  140.6120  144.7400 C   0  0  0  0  0  0  0  0  0  0  0  0
  113.6190  139.6320  144.0580 O   0  0  0  0  0  0  0  0  0  0  0  0
  114.2570  142.7750  143.5540 C   0  0  0  0  0  0  0  0  0  0  0  0
  115.1630  143.9640  143.3320 C   0  0  0  0  0  0  0  0  0  0  0  0
  116.2380  144.0160  143.9650 O   0  0  0  0  0  0  0  0  0  0  0  0
  114.8060  144.8410  142.5190 O   0  0  0  0  0  0  0  0  0  0  0  0
  113.3680  140.8670  145.9230 N   0  0  0  0  0  0  0  0  0  0  0  0
  112.3680  139.9970  146.5350 C   0  0  2  0  0  0  0  0  0  0  0  0
  111.0110  140.6850  146.6560 C   0  0  0  0  0  0  0  0  0  0  0  0
  110.3010  140.5200  147.6480 O   0  0  0  0  0  0  0  0  0  0  0  0
  112.8330  139.5190  147.9050 C   0  0  0  0  0  0  0  0  0  0  0  0
  114.2210  138.8990  148.0260 C   0  0  0  0  0  0  0  0  0  0  0  0
  114.3820  138.2780  149.4000 C   0  0  0  0  0  0  0  0  0  0  0  0
  114.4480  137.8720  146.9380 C   0  0  0  0  0  0  0  0  0  0  0  0
  110.6390  141.4650  145.6550 N   0  0  0  0  0  0  0  0  0  0  0  0
  109.3710  142.1730  145.6020 C   0  0  2  0  0  0  0  0  0  0  0  0
  108.7080  141.8830  144.2670 C   0  0  0  0  0  0  0  0  0  0  0  0
  109.3830  141.5000  143.3060 O   0  0  0  0  0  0  0  0  0  0  0  0
  109.5800  143.6850  145.7740 C   0  0  0  0  0  0  0  0  0  0  0  0
  110.6750  144.1400  145.0000 O   0  0  0  0  0  0  0  0  0  0  0  0
  2  1  1  0
  3  2  1  0
  4  3  2  0
  2  5  1  6
  6  3  1  0
  7  6  1  1
  8  7  1  0
  9  8  2  0
 10  7  1  0
 11 10  1  0
 10 12  1  6
 13  8  1  0
 14 13  1  0
 15 14  1  0
 16 15  2  0
 17 15  1  0
 18 17  1  0
 19 18  1  0
 20 19  2  0
 18 21  1  1
 22 21  1  0
 23 22  2  0
 24 22  1  0
 25 19  1  0
 26 25  1  0
 27 26  1  0
 28 27  2  0
 26 29  1  6
 30 29  1  0
 31 30  2  0
 32 30  1  0
 34 33  1  1
 35 34  1  0
 36 35  2  0
 37 34  1  0
 38 37  1  0
 39 38  2  0
 40 38  1  0
 41 35  1  0
 42 41  1  0
 43 42  1  0
 44 43  2  0
 42 45  1  1
 46 45  1  0
 47 46  2  0
 48 46  1  0
 49 47  1  0
 50 48  2  0
 51 49  2  0
 51 50  1  0
 52 51  1  0
 53 43  1  0
 54 53  1  0
 55 54  1  0
 56 55  2  0
 54 57  1  1
 58 55  1  0
 59 58  1  1
 60 59  1  0
 61 60  2  0
 62 59  1  0
 63 62  1  0
 62 64  1  6
 66 65  1  1
 67 66  1  0
 68 67  2  0
 69 66  1  0
 70 69  1  0
 69 71  1  6
 73 72  1  1
 74 73  1  0
 75 74  2  0
 76 73  1  0
 77 76  1  0
 78 77  1  0
 79 78  2  0
 80 78  1  0
 81 74  1  0
 82 81  1  0
 83 82  1  0
 84 83  2  0
 82 85  1  1
 86 85  1  0
 87 86  1  0
 88 87  2  0
 89 87  1  0
 90 83  1  0
 91 90  1  0
 92 91  1  0
 93 92  2  0
 91 94  1  6
 95 94  1  0
 96 95  2  0
 97 95  1  0
 98 96  1  0
 99 97  2  0
100 99  1  0
100 98  2  0
101100  1  0
103102  1  1
104103  1  0
105104  2  0
106103  1  0
107106  1  0
108106  1  0
109104  1  0
110109  1  0
111110  1  0
112111  2  0
110113  1  6
114113  1  0
115114  1  0
116115  1  0
117116  1  0
119118  1  1
120119  1  0
121120  2  0
122119  1  0
123122  1  0
122124  1  6
125123  1  0
126120  1  0
127126  1  0
128127  1  0
129128  2  0
127130  1  6
131130  1  0
132131  2  0
133131  1  0
134128  1  0
135134  1  0
136135  1  0
137136  2  0
135138  1  1
139138  1  0
140139  1  0
141139  1  0
142136  1  0
143142  1  0
144143  1  0
145144  2  0
143146  1  6
147146  1  0
M  END
$$$$
