
     RDKit          3D

124121  0  0  0  0  0  0  0  0999 V2000
  137.6460  124.0080  157.4290 N   0  0  0  0  0  0  0  0  0  0  0  0
  136.7130  122.8980  157.3380 C   0  0  2  0  0  0  0  0  0  0  0  0
  137.3830  121.5350  157.2660 C   0  0  0  0  0  0  0  0  0  0  0  0
  136.7040  120.5240  157.4640 O   0  0  0  0  0  0  0  0  0  0  0  0
  135.8130  123.0780  156.1140 C   0  0  0  0  0  0  0  0  0  0  0  0
  138.6850  121.4780  156.9930 N   0  0  0  0  0  0  0  0  0  0  0  0
  139.3580  120.2050  156.7590 C   0  0  2  0  0  0  0  0  0  0  0  0
  139.4690  119.3410  158.0080 C   0  0  0  0  0  0  0  0  0  0  0  0
  139.6370  118.1240  157.8770 O   0  0  0  0  0  0  0  0  0  0  0  0
  140.7550  120.4450  156.1810 C   0  0  2  0  0  0  0  0  0  0  0  0
  141.3120  119.2020  155.7350 O   0  0  0  0  0  0  0  0  0  0  0  0
  141.6730  121.0590  157.2300 C   0  0  0  0  0  0  0  0  0  0  0  0
  139.3910  119.9260  159.2020 N   0  0  0  0  0  0  0  0  0  0  0  0
  139.3990  119.1410  160.4200 C   0  0  0  0  0  0  0  0  0  0  0  0
  138.0070  118.6610  160.7690 C   0  0  0  0  0  0  0  0  0  0  0  0
  137.7800  117.4670  160.9880 O   0  0  0  0  0  0  0  0  0  0  0  0
  137.0640  119.5980  160.8230 N   0  0  0  0  0  0  0  0  0  0  0  0
  135.6550  119.2890  161.0010 C   0  0  2  0  0  0  0  0  0  0  0  0
  134.8390  120.2960  160.2070 C   0  0  0  0  0  0  0  0  0  0  0  0
  135.2200  121.4640  160.0770 O   0  0  0  0  0  0  0  0  0  0  0  0
  135.2360  119.3230  162.4790 C   0  0  0  0  0  0  0  0  0  0  0  0
  133.7750  118.9550  162.6820 C   0  0  0  0  0  0  0  0  0  0  0  0
  133.1190  118.4370  161.7780 O   0  0  0  0  0  0  0  0  0  0  0  0
  133.2600  119.2140  163.8800 N   0  0  0  0  0  0  0  0  0  0  0  0
  133.7230  119.8290  159.6510 N   0  0  0  0  0  0  0  0  0  0  0  0
  132.7540  120.7170  159.0180 C   0  0  2  0  0  0  0  0  0  0  0  0
  131.5070  120.7520  159.8830 C   0  0  0  0  0  0  0  0  0  0  0  0
  130.5910  119.9420  159.6940 O   0  0  0  0  0  0  0  0  0  0  0  0
  132.4160  120.2670  157.5960 C   0  0  0  0  0  0  0  0  0  0  0  0
  131.5530  121.2740  156.8560 C   0  0  0  0  0  0  0  0  0  0  0  0
  131.1780  122.3170  157.4060 O   0  0  0  0  0  0  0  0  0  0  0  0
  131.2350  120.9700  155.5970 N   0  0  0  0  0  0  0  0  0  0  0  0
  131.4400  121.6340  160.8720 N   0  0  0  0  0  0  0  0  0  0  0  0
  130.1820  121.8200  161.5930 C   0  0  2  0  0  0  0  0  0  0  0  0
  129.1340  122.4090  160.6650 C   0  0  0  0  0  0  0  0  0  0  0  0
  129.4490  123.1420  159.7240 O   0  0  0  0  0  0  0  0  0  0  0  0
  130.5560  122.8010  162.7100 C   0  0  0  0  0  0  0  0  0  0  0  0
  131.7190  123.5610  162.1630 C   0  0  0  0  0  0  0  0  0  0  0  0
  132.4840  122.5710  161.3210 C   0  0  0  0  0  0  0  0  0  0  0  0
  127.8730  122.0820  160.9360 N   0  0  0  0  0  0  0  0  0  0  0  0
  126.7920  122.6860  160.1700 C   0  0  2  0  0  0  0  0  0  0  0  0
  126.8920  122.3700  158.6810 C   0  0  0  0  0  0  0  0  0  0  0  0
  127.1970  123.2530  157.8720 O   0  0  0  0  0  0  0  0  0  0  0  0
  126.7840  124.1940  160.3960 C   0  0  0  0  0  0  0  0  0  0  0  0
  126.0220  124.6960  161.9530 S   0  0  0  0  0  0  0  0  0  0  0  0
  126.6530  121.1150  158.3150 N   0  0  0  0  0  0  0  0  0  0  0  0
  126.8130  120.6600  156.9380 C   0  0  2  0  0  0  0  0  0  0  0  0
  125.7280  121.2750  156.0480 C   0  0  0  0  0  0  0  0  0  0  0  0
  124.9730  122.1640  156.4540 O   0  0  0  0  0  0  0  0  0  0  0  0
  126.7980  119.1370  156.8790 C   0  0  0  0  0  0  0  0  0  0  0  0
  125.5370  118.5440  157.4660 C   0  0  0  0  0  0  0  0  0  0  0  0
  124.6230  119.2650  157.8600 O   0  0  0  0  0  0  0  0  0  0  0  0
  125.4780  117.2180  157.5210 N   0  0  0  0  0  0  0  0  0  0  0  0
  125.6630  120.8050  154.7990 N   0  0  0  0  0  0  0  0  0  0  0  0
  124.9560  121.5040  153.7250 C   0  0  2  0  0  0  0  0  0  0  0  0
  125.6860  122.7890  153.3540 C   0  0  0  0  0  0  0  0  0  0  0  0
  125.0870  123.7330  152.8340 O   0  0  0  0  0  0  0  0  0  0  0  0
  123.5010  121.8100  154.0970 C   0  0  0  0  0  0  0  0  0  0  0  0
  122.6060  120.5980  154.2190 C   0  0  0  0  0  0  0  0  0  0  0  0
  122.8090  119.4710  153.4330 C   0  0  0  0  0  0  0  0  0  0  0  0
  121.5530  120.5850  155.1220 C   0  0  0  0  0  0  0  0  0  0  0  0
  121.9860  118.3650  153.5470 C   0  0  0  0  0  0  0  0  0  0  0  0
  120.7280  119.4870  155.2430 C   0  0  0  0  0  0  0  0  0  0  0  0
  120.9480  118.3800  154.4540 C   0  0  0  0  0  0  0  0  0  0  0  0
  120.1250  117.2840  154.5750 O   0  0  0  0  0  0  0  0  0  0  0  0
  126.9900  122.8230  153.6160 N   0  0  0  0  0  0  0  0  0  0  0  0
  127.7860  124.0400  153.5440 C   0  0  2  0  0  0  0  0  0  0  0  0
  128.7420  124.0860  152.3630 C   0  0  0  0  0  0  0  0  0  0  0  0
  128.9140  125.1480  151.7620 O   0  0  0  0  0  0  0  0  0  0  0  0
  128.5860  124.2150  154.8390 C   0  0  0  0  0  0  0  0  0  0  0  0
  134.7870  123.2090  151.5790 N   0  0  0  0  0  0  0  0  0  0  0  0
  136.1040  122.8660  151.0660 C   0  0  2  0  0  0  0  0  0  0  0  0
  135.9470  122.2920  149.6670 C   0  0  0  0  0  0  0  0  0  0  0  0
  134.8490  121.9270  149.2410 O   0  0  0  0  0  0  0  0  0  0  0  0
  136.8380  121.8820  151.9840 C   0  0  2  0  0  0  0  0  0  0  0  0
  138.1900  121.7310  151.5350 O   0  0  0  0  0  0  0  0  0  0  0  0
  136.1550  120.5310  151.9650 C   0  0  0  0  0  0  0  0  0  0  0  0
  137.0070  119.4590  148.4840 N   0  0  0  0  0  0  0  0  0  0  0  0
  136.6640  118.0420  148.4500 C   0  0  2  0  0  0  0  0  0  0  0  0
  135.1670  117.8230  148.6100 C   0  0  0  0  0  0  0  0  0  0  0  0
  134.6090  116.9000  148.0140 O   0  0  0  0  0  0  0  0  0  0  0  0
  137.4240  117.2770  149.5320 C   0  0  0  0  0  0  0  0  0  0  0  0
  138.9020  117.1070  149.2570 C   0  0  0  0  0  0  0  0  0  0  0  0
  139.7180  118.2650  149.7750 C   0  0  0  0  0  0  0  0  0  0  0  0
  139.1310  119.1570  150.4210 O   0  0  0  0  0  0  0  0  0  0  0  0
  140.9440  118.2820  149.5420 O   0  0  0  0  0  0  0  0  0  0  0  0
  134.5010  118.6270  149.4370 N   0  0  0  0  0  0  0  0  0  0  0  0
  133.0640  118.4400  149.6060 C   0  0  2  0  0  0  0  0  0  0  0  0
  132.3090  118.7140  148.3130 C   0  0  0  0  0  0  0  0  0  0  0  0
  131.4170  117.9410  147.9390 O   0  0  0  0  0  0  0  0  0  0  0  0
  132.5540  119.3210  150.7410 C   0  0  0  0  0  0  0  0  0  0  0  0
  133.0800  118.8850  152.0910 C   0  0  0  0  0  0  0  0  0  0  0  0
  132.5960  119.7620  153.2180 C   0  0  0  0  0  0  0  0  0  0  0  0
  131.9330  120.7800  152.9360 O   0  0  0  0  0  0  0  0  0  0  0  0
  132.8780  119.4340  154.3880 O   0  0  0  0  0  0  0  0  0  0  0  0
  133.2720  115.6650  145.8580 N   0  0  0  0  0  0  0  0  0  0  0  0
  132.5900  114.4100  146.1490 C   0  0  2  0  0  0  0  0  0  0  0  0
  131.1000  114.5370  145.8730 C   0  0  0  0  0  0  0  0  0  0  0  0
  130.4790  113.6240  145.3160 O   0  0  0  0  0  0  0  0  0  0  0  0
  132.8610  113.9810  147.6010 C   0  0  0  0  0  0  0  0  0  0  0  0
  131.9790  112.8060  147.9750 C   0  0  0  0  0  0  0  0  0  0  0  0
  134.3260  113.6270  147.7800 C   0  0  0  0  0  0  0  0  0  0  0  0
  135.9630  111.1660  142.0110 N   0  0  0  0  0  0  0  0  0  0  0  0
  136.9330  110.5060  142.8720 C   0  0  2  0  0  0  0  0  0  0  0  0
  137.9340  111.5080  143.4360 C   0  0  0  0  0  0  0  0  0  0  0  0
  138.2260  112.5410  142.8280 O   0  0  0  0  0  0  0  0  0  0  0  0
  137.6660  109.4160  142.0890 C   0  0  0  0  0  0  0  0  0  0  0  0
  138.4770  108.4990  142.9800 C   0  0  0  0  0  0  0  0  0  0  0  0
  138.4110  108.6530  144.2160 O   0  0  0  0  0  0  0  0  0  0  0  0
  139.1800  107.6190  142.4400 O   0  0  0  0  0  0  0  0  0  0  0  0
  138.4590  111.1940  144.6220 N   0  0  0  0  0  0  0  0  0  0  0  0
  139.4970  111.9970  145.2510 C   0  0  2  0  0  0  0  0  0  0  0  0
  140.8800  111.3680  145.1650 C   0  0  0  0  0  0  0  0  0  0  0  0
  141.8730  112.0670  145.3940 O   0  0  0  0  0  0  0  0  0  0  0  0
  139.1610  112.2530  146.7270 C   0  0  0  0  0  0  0  0  0  0  0  0
  137.9000  113.0590  147.0320 C   0  0  0  0  0  0  0  0  0  0  0  0
  137.7850  113.2970  148.5260 C   0  0  0  0  0  0  0  0  0  0  0  0
  137.9070  114.3740  146.2760 C   0  0  0  0  0  0  0  0  0  0  0  0
  140.9730  110.0800  144.8540 N   0  0  0  0  0  0  0  0  0  0  0  0
  142.2710  109.4510  144.6940 C   0  0  2  0  0  0  0  0  0  0  0  0
  142.9510  109.9680  143.4280 C   0  0  0  0  0  0  0  0  0  0  0  0
  142.2810  110.3440  142.4620 O   0  0  0  0  0  0  0  0  0  0  0  0
  142.1280  107.9350  144.6230 C   0  0  0  0  0  0  0  0  0  0  0  0
  141.3890  107.5480  143.4770 O   0  0  0  0  0  0  0  0  0  0  0  0
  2  1  1  0
  3  2  1  0
  4  3  2  0
  2  5  1  6
  6  3  1  0
  7  6  1  1
  8  7  1  0
  9  8  2  0
 10  7  1  0
 11 10  1  0
 10 12  1  1
 13  8  1  0
 14 13  1  0
 15 14  1  0
 16 15  2  0
 17 15  1  0
 18 17  1  0
 19 18  1  0
 20 19  2  0
 18 21  1  1
 22 21  1  0
 23 22  2  0
 24 22  1  0
 25 19  1  0
 26 25  1  0
 27 26  1  0
 28 27  2  0
 26 29  1  6
 30 29  1  0
 31 30  2  0
 32 30  1  0
 33 27  1  0
 34 33  1  0
 34 35  1  6
 36 35  2  0
 37 34  1  0
 38 37  1  0
 39 38  1  0
 39 33  1  0
 40 35  1  0
 41 40  1  0
 42 41  1  0
 43 42  2  0
 41 44  1  6
 45 44  1  0
 46 42  1  0
 47 46  1  0
 48 47  1  0
 49 48  2  0
 47 50  1  1
 51 50  1  0
 52 51  2  0
 53 51  1  0
 54 48  1  0
 55 54  1  0
 56 55  1  0
 57 56  2  0
 55 58  1  1
 59 58  1  0
 60 59  2  0
 61 59  1  0
 62 60  1  0
 63 61  2  0
 64 63  1  0
 64 62  2  0
 65 64  1  0
 66 56  1  0
 67 66  1  0
 68 67  1  0
 69 68  2  0
 67 70  1  1
 72 71  1  1
 73 72  1  0
 74 73  2  0
 75 72  1  0
 76 75  1  0
 75 77  1  6
 79 78  1  1
 80 79  1  0
 81 80  2  0
 82 79  1  0
 83 82  1  0
 84 83  1  0
 85 84  2  0
 86 84  1  0
 87 80  1  0
 88 87  1  0
 89 88  1  0
 90 89  2  0
 88 91  1  1
 92 91  1  0
 93 92  1  0
 94 93  2  0
 95 93  1  0
 97 96  1  1
 98 97  1  0
 99 98  2  0
100 97  1  0
101100  1  0
102100  1  0
104103  1  6
105104  1  0
106105  2  0
107104  1  0
108107  1  0
109108  2  0
110108  1  0
111105  1  0
112111  1  0
113112  1  0
114113  2  0
112115  1  1
116115  1  0
117116  1  0
118116  1  0
119113  1  0
120119  1  0
121120  1  0
122121  2  0
120123  1  6
124123  1  0
M  END
$$$$
