
     RDKit          3D

135132  0  0  0  0  0  0  0  0999 V2000
  136.8290  123.9830  158.4730 N   0  0  0  0  0  0  0  0  0  0  0  0
  136.0200  122.7770  158.4140 C   0  0  2  0  0  0  0  0  0  0  0  0
  136.8430  121.5220  158.1830 C   0  0  0  0  0  0  0  0  0  0  0  0
  136.3060  120.4180  158.3050 O   0  0  0  0  0  0  0  0  0  0  0  0
  134.9650  122.9040  157.3150 C   0  0  0  0  0  0  0  0  0  0  0  0
  138.1330  121.6620  157.8650 N   0  0  0  0  0  0  0  0  0  0  0  0
  138.9560  120.4990  157.5530 C   0  0  2  0  0  0  0  0  0  0  0  0
  139.0410  119.5320  158.7250 C   0  0  0  0  0  0  0  0  0  0  0  0
  139.1610  118.3210  158.5180 O   0  0  0  0  0  0  0  0  0  0  0  0
  140.3550  120.9410  157.1370 C   0  0  2  0  0  0  0  0  0  0  0  0
  141.0950  119.8070  156.6710 O   0  0  0  0  0  0  0  0  0  0  0  0
  141.0820  121.5720  158.3150 C   0  0  0  0  0  0  0  0  0  0  0  0
  138.9840  120.0350  159.9500 N   0  0  0  0  0  0  0  0  0  0  0  0
  138.9620  119.1540  161.0980 C   0  0  0  0  0  0  0  0  0  0  0  0
  137.6120  118.4920  161.2470 C   0  0  0  0  0  0  0  0  0  0  0  0
  137.5250  117.2760  161.4370 O   0  0  0  0  0  0  0  0  0  0  0  0
  136.5470  119.2840  161.1530 N   0  0  0  0  0  0  0  0  0  0  0  0
  135.1850  118.7750  161.1780 C   0  0  2  0  0  0  0  0  0  0  0  0
  134.3060  119.9070  160.6770 C   0  0  0  0  0  0  0  0  0  0  0  0
  134.6110  121.0800  160.9070 O   0  0  0  0  0  0  0  0  0  0  0  0
  134.8080  118.2830  162.6000 C   0  0  0  0  0  0  0  0  0  0  0  0
  134.5560  119.4100  163.6110 C   0  0  0  0  0  0  0  0  0  0  0  0
  135.2820  120.3980  163.6910 O   0  0  0  0  0  0  0  0  0  0  0  0
  133.4940  119.2480  164.3970 N   0  0  0  0  0  0  0  0  0  0  0  0
  133.2250  119.5590  159.9900 N   0  0  0  0  0  0  0  0  0  0  0  0
  132.3480  120.5840  159.4520 C   0  0  2  0  0  0  0  0  0  0  0  0
  131.1620  120.7790  160.3760 C   0  0  0  0  0  0  0  0  0  0  0  0
  130.4020  119.8270  160.6050 O   0  0  0  0  0  0  0  0  0  0  0  0
  131.8710  120.2180  158.0500 C   0  0  0  0  0  0  0  0  0  0  0  0
  131.2230  121.3880  157.3310 C   0  0  0  0  0  0  0  0  0  0  0  0
  130.9640  122.4310  157.9280 O   0  0  0  0  0  0  0  0  0  0  0  0
  130.9600  121.2180  156.0430 N   0  0  0  0  0  0  0  0  0  0  0  0
  130.9750  121.9650  160.9450 N   0  0  0  0  0  0  0  0  0  0  0  0
  129.7470  122.2410  161.6900 C   0  0  2  0  0  0  0  0  0  0  0  0
  128.6140  122.6020  160.7470 C   0  0  0  0  0  0  0  0  0  0  0  0
  128.8220  123.2050  159.6920 O   0  0  0  0  0  0  0  0  0  0  0  0
  130.1280  123.4350  162.5780 C   0  0  0  0  0  0  0  0  0  0  0  0
  131.6180  123.6190  162.4070 C   0  0  0  0  0  0  0  0  0  0  0  0
  131.9500  123.0550  161.0750 C   0  0  0  0  0  0  0  0  0  0  0  0
  126.8890  121.1280  158.6560 N   0  0  0  0  0  0  0  0  0  0  0  0
  126.7340  120.1010  157.6300 C   0  0  2  0  0  0  0  0  0  0  0  0
  125.8050  120.4520  156.4750 C   0  0  0  0  0  0  0  0  0  0  0  0
  125.2410  119.5540  155.8510 O   0  0  0  0  0  0  0  0  0  0  0  0
  126.3040  118.7700  158.2640 C   0  0  0  0  0  0  0  0  0  0  0  0
  124.8420  118.7130  158.6320 C   0  0  0  0  0  0  0  0  0  0  0  0
  124.1060  119.6700  158.4800 O   0  0  0  0  0  0  0  0  0  0  0  0
  124.4120  117.5570  159.1040 N   0  0  0  0  0  0  0  0  0  0  0  0
  125.6610  121.7340  156.1590 N   0  0  0  0  0  0  0  0  0  0  0  0
  124.9560  122.1500  154.9520 C   0  0  2  0  0  0  0  0  0  0  0  0
  125.7550  123.1920  154.2010 C   0  0  0  0  0  0  0  0  0  0  0  0
  125.1910  123.9850  153.4450 O   0  0  0  0  0  0  0  0  0  0  0  0
  123.5740  122.7210  155.2690 C   0  0  0  0  0  0  0  0  0  0  0  0
  122.4910  121.7220  155.5760 C   0  0  0  0  0  0  0  0  0  0  0  0
  122.5680  120.4180  155.1340 C   0  0  0  0  0  0  0  0  0  0  0  0
  121.3880  122.0870  156.3250 C   0  0  0  0  0  0  0  0  0  0  0  0
  121.5810  119.5150  155.4240 C   0  0  0  0  0  0  0  0  0  0  0  0
  120.4020  121.1920  156.6150 C   0  0  0  0  0  0  0  0  0  0  0  0
  120.5000  119.9070  156.1640 C   0  0  0  0  0  0  0  0  0  0  0  0
  119.5100  119.0080  156.4590 O   0  0  0  0  0  0  0  0  0  0  0  0
  127.0570  123.2040  154.3790 N   0  0  0  0  0  0  0  0  0  0  0  0
  127.8080  124.4180  154.1330 C   0  0  2  0  0  0  0  0  0  0  0  0
  128.7360  124.3760  152.9270 C   0  0  0  0  0  0  0  0  0  0  0  0
  129.0010  125.4310  152.3570 O   0  0  0  0  0  0  0  0  0  0  0  0
  128.6180  124.7760  155.3820 C   0  0  0  0  0  0  0  0  0  0  0  0
  129.2110  123.2080  152.5040 N   0  0  0  0  0  0  0  0  0  0  0  0
  130.2330  123.0940  151.4600 C   0  0  2  0  0  0  0  0  0  0  0  0
  131.4180  124.0080  151.7640 C   0  0  0  0  0  0  0  0  0  0  0  0
  131.9060  124.7530  150.9180 O   0  0  0  0  0  0  0  0  0  0  0  0
  129.6810  123.4040  150.0710 C   0  0  2  0  0  0  0  0  0  0  0  0
  128.6030  122.5170  149.7550 O   0  0  0  0  0  0  0  0  0  0  0  0
  130.7540  123.2400  149.0410 C   0  0  0  0  0  0  0  0  0  0  0  0
  136.8080  119.5320  149.0910 N   0  0  0  0  0  0  0  0  0  0  0  0
  136.4980  118.1090  149.0970 C   0  0  2  0  0  0  0  0  0  0  0  0
  134.9980  117.8660  149.1700 C   0  0  0  0  0  0  0  0  0  0  0  0
  134.4860  116.9490  148.5250 O   0  0  0  0  0  0  0  0  0  0  0  0
  137.1990  117.4260  150.2630 C   0  0  0  0  0  0  0  0  0  0  0  0
  138.6240  117.0350  149.9830 C   0  0  0  0  0  0  0  0  0  0  0  0
  139.6140  118.0290  150.5400 C   0  0  0  0  0  0  0  0  0  0  0  0
  139.2070  119.1670  150.8330 O   0  0  0  0  0  0  0  0  0  0  0  0
  140.8000  117.6730  150.6920 O   0  0  0  0  0  0  0  0  0  0  0  0
  134.2740  118.6660  149.9520 N   0  0  0  0  0  0  0  0  0  0  0  0
  132.8410  118.4390  150.0850 C   0  0  2  0  0  0  0  0  0  0  0  0
  132.1110  118.7580  148.7950 C   0  0  0  0  0  0  0  0  0  0  0  0
  131.2180  118.0150  148.3840 O   0  0  0  0  0  0  0  0  0  0  0  0
  132.2790  119.2600  151.2330 C   0  0  0  0  0  0  0  0  0  0  0  0
  132.6340  118.6910  152.5740 C   0  0  0  0  0  0  0  0  0  0  0  0
  132.1340  119.5350  153.7190 C   0  0  0  0  0  0  0  0  0  0  0  0
  131.0970  120.2100  153.5580 O   0  0  0  0  0  0  0  0  0  0  0  0
  132.7820  119.5250  154.7840 O   0  0  0  0  0  0  0  0  0  0  0  0
  132.9240  115.7880  146.3890 N   0  0  0  0  0  0  0  0  0  0  0  0
  132.2210  114.5340  146.6050 C   0  0  2  0  0  0  0  0  0  0  0  0
  130.7360  114.7150  146.3730 C   0  0  0  0  0  0  0  0  0  0  0  0
  130.0590  113.7980  145.8990 O   0  0  0  0  0  0  0  0  0  0  0  0
  132.4980  113.9960  148.0150 C   0  0  0  0  0  0  0  0  0  0  0  0
  131.6600  112.7870  148.2770 C   0  0  0  0  0  0  0  0  0  0  0  0
  133.9410  113.6480  148.1550 C   0  0  0  0  0  0  0  0  0  0  0  0
  130.2040  115.8940  146.6770 N   0  0  0  0  0  0  0  0  0  0  0  0
  128.7800  116.1300  146.5030 C   0  0  2  0  0  0  0  0  0  0  0  0
  128.3440  115.9740  145.0580 C   0  0  0  0  0  0  0  0  0  0  0  0
  127.1640  115.7190  144.8070 O   0  0  0  0  0  0  0  0  0  0  0  0
  128.4230  117.5220  147.0090 C   0  0  0  0  0  0  0  0  0  0  0  0
  126.9610  117.7120  147.3020 C   0  0  0  0  0  0  0  0  0  0  0  0
  126.6910  119.1130  147.8070 C   0  0  0  0  0  0  0  0  0  0  0  0
  127.4090  119.3920  149.1150 C   0  0  0  0  0  0  0  0  0  0  0  0
  126.7130  118.8160  150.2940 N   0  0  0  0  0  0  0  0  0  0  0  0
  132.3410  112.5070  142.6140 N   0  0  0  0  0  0  0  0  0  0  0  0
  133.6630  112.4690  142.0070 C   0  0  2  0  0  0  0  0  0  0  0  0
  134.6100  111.8080  142.9920 C   0  0  0  0  0  0  0  0  0  0  0  0
  134.5210  112.0470  144.1980 O   0  0  0  0  0  0  0  0  0  0  0  0
  134.1650  113.8790  141.6450 C   0  0  2  0  0  0  0  0  0  0  0  0
  133.2210  114.5460  140.6580 C   0  0  0  0  0  0  0  0  0  0  0  0
  135.5410  113.8140  141.0470 C   0  0  0  0  0  0  0  0  0  0  0  0
  133.6780  115.9050  140.2270 C   0  0  0  0  0  0  0  0  0  0  0  0
  135.5110  110.9750  142.4890 N   0  0  0  0  0  0  0  0  0  0  0  0
  136.4900  110.3680  143.3670 C   0  0  2  0  0  0  0  0  0  0  0  0
  137.4240  111.4270  143.9390 C   0  0  0  0  0  0  0  0  0  0  0  0
  137.3770  112.6000  143.5730 O   0  0  0  0  0  0  0  0  0  0  0  0
  137.3020  109.3080  142.6300 C   0  0  0  0  0  0  0  0  0  0  0  0
  137.7090  108.1710  143.5290 C   0  0  0  0  0  0  0  0  0  0  0  0
  137.4080  108.2040  144.7340 O   0  0  0  0  0  0  0  0  0  0  0  0
  138.3650  107.2410  143.0260 O   0  0  0  0  0  0  0  0  0  0  0  0
  138.2670  111.0010  144.8680 N   0  0  0  0  0  0  0  0  0  0  0  0
  139.3130  111.8510  145.4070 C   0  0  2  0  0  0  0  0  0  0  0  0
  140.6860  111.2080  145.3730 C   0  0  0  0  0  0  0  0  0  0  0  0
  141.6850  111.9220  145.4570 O   0  0  0  0  0  0  0  0  0  0  0  0
  138.9810  112.2550  146.8480 C   0  0  0  0  0  0  0  0  0  0  0  0
  137.6780  113.0180  147.0750 C   0  0  0  0  0  0  0  0  0  0  0  0
  137.5170  113.3270  148.5370 C   0  0  0  0  0  0  0  0  0  0  0  0
  137.6570  114.2940  146.2880 C   0  0  0  0  0  0  0  0  0  0  0  0
  140.7650  109.8900  145.2600 N   0  0  0  0  0  0  0  0  0  0  0  0
  142.0520  109.2370  145.1040 C   0  0  2  0  0  0  0  0  0  0  0  0
  142.7410  109.7470  143.8420 C   0  0  0  0  0  0  0  0  0  0  0  0
  142.0750  110.1250  142.8790 O   0  0  0  0  0  0  0  0  0  0  0  0
  141.8740  107.7220  145.0250 C   0  0  0  0  0  0  0  0  0  0  0  0
  143.1020  107.0560  144.8020 O   0  0  0  0  0  0  0  0  0  0  0  0
  2  1  1  0
  3  2  1  0
  4  3  2  0
  2  5  1  6
  6  3  1  0
  7  6  1  1
  8  7  1  0
  9  8  2  0
 10  7  1  0
 11 10  1  0
 10 12  1  1
 13  8  1  0
 14 13  1  0
 15 14  1  0
 16 15  2  0
 17 15  1  0
 18 17  1  0
 19 18  1  0
 20 19  2  0
 18 21  1  1
 22 21  1  0
 23 22  2  0
 24 22  1  0
 25 19  1  0
 26 25  1  0
 27 26  1  0
 28 27  2  0
 26 29  1  6
 30 29  1  0
 31 30  2  0
 32 30  1  0
 33 27  1  0
 34 33  1  0
 34 35  1  6
 36 35  2  0
 37 34  1  0
 38 37  1  0
 39 38  1  0
 39 33  1  0
 41 40  1  1
 42 41  1  0
 43 42  2  0
 44 41  1  0
 45 44  1  0
 46 45  2  0
 47 45  1  0
 48 42  1  0
 49 48  1  0
 50 49  1  0
 51 50  2  0
 49 52  1  1
 53 52  1  0
 54 53  2  0
 55 53  1  0
 56 54  1  0
 57 55  2  0
 58 56  2  0
 58 57  1  0
 59 58  1  0
 60 50  1  0
 61 60  1  0
 62 61  1  0
 63 62  2  0
 61 64  1  1
 65 62  1  0
 66 65  1  1
 67 66  1  0
 68 67  2  0
 69 66  1  0
 70 69  1  0
 69 71  1  6
 73 72  1  1
 74 73  1  0
 75 74  2  0
 76 73  1  0
 77 76  1  0
 78 77  1  0
 79 78  2  0
 80 78  1  0
 81 74  1  0
 82 81  1  0
 83 82  1  0
 84 83  2  0
 82 85  1  1
 86 85  1  0
 87 86  1  0
 88 87  2  0
 89 87  1  0
 91 90  1  1
 92 91  1  0
 93 92  2  0
 94 91  1  0
 95 94  1  0
 96 94  1  0
 97 92  1  0
 98 97  1  0
 99 98  1  0
100 99  2  0
 98101  1  6
102101  1  0
103102  1  0
104103  1  0
105104  1  0
107106  1  1
108107  1  0
109108  2  0
110107  1  0
111110  1  0
110112  1  6
113111  1  0
114108  1  0
115114  1  0
116115  1  0
117116  2  0
115118  1  6
119118  1  0
120119  2  0
121119  1  0
122116  1  0
123122  1  0
124123  1  0
125124  2  0
123126  1  1
127126  1  0
128127  1  0
129127  1  0
130124  1  0
131130  1  0
132131  1  0
133132  2  0
131134  1  6
135134  1  0
M  END
$$$$
