
     RDKit          3D

 84 80  0  0  0  0  0  0  0  0999 V2000
  299.4700  228.3690  231.5360 N   0  0  0  0  0  0  0  0  0  0  0  0
  300.7040  228.3570  232.3220 C   0  0  2  0  0  0  0  0  0  0  0  0
  301.8160  228.0540  231.3230 C   0  0  0  0  0  0  0  0  0  0  0  0
  302.1520  226.8920  231.0810 O   0  0  0  0  0  0  0  0  0  0  0  0
  300.6500  227.3390  233.4500 C   0  0  2  0  0  0  0  0  0  0  0  0
  299.5400  227.6370  234.3050 O   0  0  0  0  0  0  0  0  0  0  0  0
  301.9310  227.3730  234.2630 C   0  0  0  0  0  0  0  0  0  0  0  0
  302.3810  229.1090  230.7440 N   0  0  0  0  0  0  0  0  0  0  0  0
  303.3240  228.9530  229.6500 C   0  0  2  0  0  0  0  0  0  0  0  0
  304.1960  230.1940  229.5640 C   0  0  0  0  0  0  0  0  0  0  0  0
  303.7210  231.3190  229.7400 O   0  0  0  0  0  0  0  0  0  0  0  0
  302.5970  228.7150  228.3240 C   0  0  0  0  0  0  0  0  0  0  0  0
  303.4950  228.2290  227.2120 C   0  0  0  0  0  0  0  0  0  0  0  0
  304.1990  229.3640  226.5050 C   0  0  0  0  0  0  0  0  0  0  0  0
  303.6700  230.4950  226.5180 O   0  0  0  0  0  0  0  0  0  0  0  0
  305.2840  229.1240  225.9400 O   0  0  0  0  0  0  0  0  0  0  0  0
  305.4710  229.9790  229.2680 N   0  0  0  0  0  0  0  0  0  0  0  0
  306.4750  231.0260  229.3580 C   0  0  2  0  0  0  0  0  0  0  0  0
  307.0730  231.4300  228.0200 C   0  0  0  0  0  0  0  0  0  0  0  0
  307.3440  232.6150  227.8220 O   0  0  0  0  0  0  0  0  0  0  0  0
  307.6010  230.5740  230.3010 C   0  0  0  0  0  0  0  0  0  0  0  0
  308.5100  231.6620  230.8320 C   0  0  0  0  0  0  0  0  0  0  0  0
  309.4950  231.0580  231.8230 C   0  0  0  0  0  0  0  0  0  0  0  0
  310.4540  232.0860  232.3900 C   0  0  0  0  0  0  0  0  0  0  0  0
  311.2140  232.7950  231.3340 N   0  0  0  0  0  0  0  0  0  0  0  0
  307.2540  230.4960  227.0880 N   0  0  0  0  0  0  0  0  0  0  0  0
  307.9830  230.7560  225.8540 C   0  0  2  0  0  0  0  0  0  0  0  0
  307.0700  231.1410  224.6940 C   0  0  0  0  0  0  0  0  0  0  0  0
  307.5000  231.0900  223.5370 O   0  0  0  0  0  0  0  0  0  0  0  0
  308.8270  229.5390  225.4770 C   0  0  0  0  0  0  0  0  0  0  0  0
  309.8620  229.8980  224.5790 O   0  0  0  0  0  0  0  0  0  0  0  0
  308.0100  234.3930  235.8860 N   0  0  0  0  0  0  0  0  0  0  0  0
  307.0820  233.4580  235.2670 C   0  0  2  0  0  0  0  0  0  0  0  0
  305.7100  233.6420  235.9040 C   0  0  0  0  0  0  0  0  0  0  0  0
  305.3380  232.9650  236.8650 O   0  0  0  0  0  0  0  0  0  0  0  0
  307.6340  232.0220  235.3440 C   0  0  0  0  0  0  0  0  0  0  0  0
  307.8030  231.4780  236.7390 C   0  0  0  0  0  0  0  0  0  0  0  0
  308.9900  231.6730  237.4220 C   0  0  0  0  0  0  0  0  0  0  0  0
  306.8350  230.6710  237.3170 C   0  0  0  0  0  0  0  0  0  0  0  0
  309.1700  231.1580  238.6900 C   0  0  0  0  0  0  0  0  0  0  0  0
  307.0080  230.1540  238.5840 C   0  0  0  0  0  0  0  0  0  0  0  0
  308.1790  230.3930  239.2690 C   0  0  0  0  0  0  0  0  0  0  0  0
  302.6900  233.2290  234.4170 N   0  0  0  0  0  0  0  0  0  0  0  0
  302.0850  231.9490  234.0460 C   0  0  2  0  0  0  0  0  0  0  0  0
  300.6860  231.7740  234.6300 C   0  0  0  0  0  0  0  0  0  0  0  0
  300.2330  230.6610  234.9020 O   0  0  0  0  0  0  0  0  0  0  0  0
  302.9880  230.7840  234.4500 C   0  0  0  0  0  0  0  0  0  0  0  0
  304.2320  230.6850  233.5930 C   0  0  0  0  0  0  0  0  0  0  0  0
  304.2350  231.0990  232.4360 O   0  0  0  0  0  0  0  0  0  0  0  0
  305.2920  230.1130  234.1510 N   0  0  0  0  0  0  0  0  0  0  0  0
  304.9750  228.0860  241.7300 N   0  0  0  0  0  0  0  0  0  0  0  0
  304.9070  226.6460  241.5420 C   0  0  2  0  0  0  0  0  0  0  0  0
  304.9190  226.3440  240.0520 C   0  0  0  0  0  0  0  0  0  0  0  0
  304.5120  227.1750  239.2350 O   0  0  0  0  0  0  0  0  0  0  0  0
  303.6600  226.0540  242.2070 C   0  0  0  0  0  0  0  0  0  0  0  0
  303.6210  224.5340  242.3460 C   0  0  0  0  0  0  0  0  0  0  0  0
  304.9160  224.0270  242.9540 C   0  0  0  0  0  0  0  0  0  0  0  0
  302.4370  224.1180  243.1930 C   0  0  0  0  0  0  0  0  0  0  0  0
  305.3950  225.1470  239.7060 N   0  0  0  0  0  0  0  0  0  0  0  0
  305.5540  224.7860  238.3000 C   0  0  2  0  0  0  0  0  0  0  0  0
  304.2000  224.7230  237.5990 C   0  0  0  0  0  0  0  0  0  0  0  0
  304.0230  225.2830  236.5110 O   0  0  0  0  0  0  0  0  0  0  0  0
  306.3400  223.4670  238.1700 C   0  0  0  0  0  0  0  0  0  0  0  0
  307.7610  223.6600  238.6640 C   0  0  0  0  0  0  0  0  0  0  0  0
  305.6760  222.3510  238.9660 C   0  0  0  0  0  0  0  0  0  0  0  0
  309.1180  221.5880  219.8580 N   0  0  0  0  0  0  0  0  0  0  0  0
  308.6370  222.7260  220.6290 C   0  0  2  0  0  0  0  0  0  0  0  0
  308.5980  222.3170  222.0980 C   0  0  0  0  0  0  0  0  0  0  0  0
  309.1740  221.2950  222.4850 O   0  0  0  0  0  0  0  0  0  0  0  0
  307.2730  223.2010  220.1010 C   0  0  0  0  0  0  0  0  0  0  0  0
  307.9110  223.1060  222.9160 N   0  0  0  0  0  0  0  0  0  0  0  0
  307.8840  222.9090  224.3490 C   0  0  0  0  0  0  0  0  0  0  0  0
  306.7820  221.9780  224.8070 C   0  0  0  0  0  0  0  0  0  0  0  0
  306.3270  221.0940  224.0770 O   0  0  0  0  0  0  0  0  0  0  0  0
  306.3510  222.1860  226.0510 N   0  0  0  0  0  0  0  0  0  0  0  0
  305.3380  221.3440  226.6720 C   0  0  2  0  0  0  0  0  0  0  0  0
  304.1240  222.1640  227.0940 C   0  0  0  0  0  0  0  0  0  0  0  0
  303.6400  222.0270  228.2220 O   0  0  0  0  0  0  0  0  0  0  0  0
  305.9230  220.6010  227.8740 C   0  0  0  0  0  0  0  0  0  0  0  0
  303.6340  223.0230  226.2060 N   0  0  0  0  0  0  0  0  0  0  0  0
  302.5430  223.9220  226.5520 C   0  0  2  0  0  0  0  0  0  0  0  0
  301.2500  223.1550  226.8150 C   0  0  0  0  0  0  0  0  0  0  0  0
  301.0030  222.0900  226.2460 O   0  0  0  0  0  0  0  0  0  0  0  0
  302.3220  224.9420  225.4380 C   0  0  0  0  0  0  0  0  0  0  0  0
  2  1  1  6
  3  2  1  0
  4  3  2  0
  5  2  1  0
  6  5  1  0
  5  7  1  1
  8  3  1  0
  9  8  1  0
 10  9  1  0
 11 10  2  0
  9 12  1  6
 13 12  1  0
 14 13  1  0
 15 14  2  0
 16 14  1  0
 17 10  1  0
 18 17  1  0
 19 18  1  0
 20 19  2  0
 18 21  1  1
 22 21  1  0
 23 22  1  0
 24 23  1  0
 25 24  1  0
 26 19  1  0
 27 26  1  0
 28 27  1  0
 29 28  2  0
 27 30  1  6
 31 30  1  0
 33 32  1  1
 34 33  1  0
 35 34  2  0
 36 33  1  0
 37 36  1  0
 38 37  2  0
 39 37  1  0
 40 38  1  0
 41 39  2  0
 42 41  1  0
 42 40  2  0
 44 43  1  1
 45 44  1  0
 46 45  2  0
 47 44  1  0
 48 47  1  0
 49 48  2  0
 50 48  1  0
 52 51  1  6
 53 52  1  0
 54 53  2  0
 55 52  1  0
 56 55  1  0
 57 56  1  0
 58 56  1  0
 59 53  1  0
 60 59  1  1
 61 60  1  0
 62 61  2  0
 63 60  1  0
 64 63  1  0
 65 63  1  0
 67 66  1  0
 68 67  1  0
 69 68  2  0
 67 70  1  6
 71 68  1  0
 72 71  1  0
 73 72  1  0
 74 73  2  0
 75 73  1  0
 76 75  1  0
 77 76  1  0
 78 77  2  0
 76 79  1  1
 80 77  1  0
 81 80  1  0
 82 81  1  0
 83 82  2  0
 81 84  1  6
M  END
$$$$
