
     RDKit          3D

140137  0  0  0  0  0  0  0  0999 V2000
  253.0370  252.5460  282.8190 N   0  0  0  0  0  0  0  0  0  0  0  0
  254.4620  252.5860  282.3910 C   0  0  2  0  0  0  0  0  0  0  0  0
  254.7100  253.9450  281.7280 C   0  0  0  0  0  0  0  0  0  0  0  0
  253.9120  254.3140  280.8430 O   0  0  0  0  0  0  0  0  0  0  0  0
  254.7380  251.4630  281.3870 C   0  0  0  0  0  0  0  0  0  0  0  0
  254.7520  250.0650  281.9890 C   0  0  0  0  0  0  0  0  0  0  0  0
  256.1080  249.6920  282.5570 C   0  0  0  0  0  0  0  0  0  0  0  0
  256.2590  248.2510  282.7020 N   0  0  0  0  0  0  0  0  0  0  0  0
  257.3950  247.6410  283.0200 C   0  0  0  0  0  0  0  0  0  0  0  0
  257.4310  246.3240  283.1270 N   0  0  0  0  0  0  0  0  0  0  0  0
  258.4900  248.3490  283.2290 N   0  0  0  0  0  0  0  0  0  0  0  0
  255.7770  254.6510  282.1170 N   0  0  0  0  0  0  0  0  0  0  0  0
  256.0350  255.9970  281.5230 C   0  0  2  0  0  0  0  0  0  0  0  0
  257.4880  256.0990  281.0440 C   0  0  0  0  0  0  0  0  0  0  0  0
  258.3950  255.7370  281.8160 O   0  0  0  0  0  0  0  0  0  0  0  0
  255.6740  257.1110  282.5270 C   0  0  2  0  0  0  0  0  0  0  0  0
  255.3900  258.4400  281.8220 C   0  0  0  0  0  0  0  0  0  0  0  0
  256.7490  257.2490  283.5930 C   0  0  0  0  0  0  0  0  0  0  0  0
  254.7890  259.4930  282.7200 C   0  0  0  0  0  0  0  0  0  0  0  0
  267.2210  258.7020  273.0210 N   0  0  0  0  0  0  0  0  0  0  0  0
  266.2650  258.0890  273.9850 C   0  0  2  0  0  0  0  0  0  0  0  0
  266.8010  258.2770  275.4090 C   0  0  0  0  0  0  0  0  0  0  0  0
  267.7310  257.5430  275.7970 O   0  0  0  0  0  0  0  0  0  0  0  0
  266.0060  256.6140  273.6640 C   0  0  0  0  0  0  0  0  0  0  0  0
  265.1970  255.9050  274.7290 C   0  0  0  0  0  0  0  0  0  0  0  0
  265.2010  254.6780  274.8040 O   0  0  0  0  0  0  0  0  0  0  0  0
  264.5030  256.6670  275.5580 N   0  0  0  0  0  0  0  0  0  0  0  0
  265.1210  257.7790  278.3660 N   0  0  0  0  0  0  0  0  0  0  0  0
  264.6460  256.7930  279.3760 C   0  0  2  0  0  0  0  0  0  0  0  0
  263.6870  255.7820  278.7370 C   0  0  0  0  0  0  0  0  0  0  0  0
  262.7890  256.2080  277.9840 O   0  0  0  0  0  0  0  0  0  0  0  0
  263.9530  257.5530  280.5110 C   0  0  0  0  0  0  0  0  0  0  0  0
  263.4570  256.6910  281.6700 C   0  0  0  0  0  0  0  0  0  0  0  0
  264.6120  255.9550  282.3310 C   0  0  0  0  0  0  0  0  0  0  0  0
  262.7090  257.5350  282.6910 C   0  0  0  0  0  0  0  0  0  0  0  0
  263.8620  254.4940  279.0570 N   0  0  0  0  0  0  0  0  0  0  0  0
  262.9870  253.4100  278.5340 C   0  0  2  0  0  0  0  0  0  0  0  0
  261.7330  253.3040  279.4110 C   0  0  0  0  0  0  0  0  0  0  0  0
  261.7080  253.9450  280.4810 O   0  0  0  0  0  0  0  0  0  0  0  0
  263.7250  252.0980  278.4680 C   0  0  0  0  0  0  0  0  0  0  0  0
  264.8830  252.2110  277.6550 O   0  0  0  0  0  0  0  0  0  0  0  0
  260.7340  252.5180  278.9940 N   0  0  0  0  0  0  0  0  0  0  0  0
  259.4980  252.4400  279.8190 C   0  0  2  0  0  0  0  0  0  0  0  0
  259.8560  251.9010  281.2090 C   0  0  0  0  0  0  0  0  0  0  0  0
  260.5670  250.8810  281.2840 O   0  0  0  0  0  0  0  0  0  0  0  0
  258.4790  251.5370  279.1170 C   0  0  0  0  0  0  0  0  0  0  0  0
  257.7500  252.1760  277.9370 C   0  0  0  0  0  0  0  0  0  0  0  0
  256.6270  251.2790  277.4440 C   0  0  0  0  0  0  0  0  0  0  0  0
  257.2060  253.5430  278.3170 C   0  0  0  0  0  0  0  0  0  0  0  0
  259.3480  252.5580  282.2580 N   0  0  0  0  0  0  0  0  0  0  0  0
  259.6110  252.1690  283.6710 C   0  0  2  0  0  0  0  0  0  0  0  0
  258.3540  252.4220  284.5100 C   0  0  0  0  0  0  0  0  0  0  0  0
  257.4910  253.1940  284.0500 O   0  0  0  0  0  0  0  0  0  0  0  0
  260.8250  252.9120  284.2420 C   0  0  2  0  0  0  0  0  0  0  0  0
  261.1290  252.3420  285.5150 O   0  0  0  0  0  0  0  0  0  0  0  0
  260.5880  254.3980  284.3890 C   0  0  0  0  0  0  0  0  0  0  0  0
  258.2400  251.7630  285.6680 N   0  0  0  0  0  0  0  0  0  0  0  0
  257.0460  251.9280  286.5420 C   0  0  2  0  0  0  0  0  0  0  0  0
  257.2910  252.9650  287.6470 C   0  0  0  0  0  0  0  0  0  0  0  0
  256.3430  253.2150  288.4150 O   0  0  0  0  0  0  0  0  0  0  0  0
  256.5760  250.5960  287.1340 C   0  0  0  0  0  0  0  0  0  0  0  0
  257.2720  250.2360  288.4300 C   0  0  0  0  0  0  0  0  0  0  0  0
  258.3620  250.7250  288.7150 O   0  0  0  0  0  0  0  0  0  0  0  0
  256.6510  249.3770  289.2210 N   0  0  0  0  0  0  0  0  0  0  0  0
  258.4900  253.5540  287.7340 N   0  0  0  0  0  0  0  0  0  0  0  0
  258.7340  254.5370  288.8250 C   0  0  2  0  0  0  0  0  0  0  0  0
  258.5880  255.9730  288.3050 C   0  0  0  0  0  0  0  0  0  0  0  0
  259.3880  256.3820  287.4450 O   0  0  0  0  0  0  0  0  0  0  0  0
  260.1010  254.2910  289.4730 C   0  0  0  0  0  0  0  0  0  0  0  0
  261.1380  253.6300  288.5760 C   0  0  0  0  0  0  0  0  0  0  0  0
  262.3610  253.1560  289.3290 C   0  0  0  0  0  0  0  0  0  0  0  0
  263.2880  252.3120  288.4800 C   0  0  0  0  0  0  0  0  0  0  0  0
  264.5000  251.9070  289.2290 N   0  0  0  0  0  0  0  0  0  0  0  0
  261.7010  246.2140  271.1420 N   0  0  0  0  0  0  0  0  0  0  0  0
  262.6690  245.6390  272.1150 C   0  0  2  0  0  0  0  0  0  0  0  0
  263.2430  246.7400  273.0150 C   0  0  0  0  0  0  0  0  0  0  0  0
  262.9350  246.7350  274.2230 O   0  0  0  0  0  0  0  0  0  0  0  0
  263.7640  244.8830  271.4060 C   0  0  0  0  0  0  0  0  0  0  0  0
  263.2260  243.8090  270.6490 O   0  0  0  0  0  0  0  0  0  0  0  0
  264.0570  247.6310  272.4420 N   0  0  0  0  0  0  0  0  0  0  0  0
  264.6860  248.7430  273.2090 C   0  0  2  0  0  0  0  0  0  0  0  0
  263.6390  249.5320  274.0050 C   0  0  0  0  0  0  0  0  0  0  0  0
  263.8880  249.8120  275.1920 O   0  0  0  0  0  0  0  0  0  0  0  0
  265.4400  249.6490  272.2310 C   0  0  0  0  0  0  0  0  0  0  0  0
  266.7830  249.1040  271.7490 C   0  0  0  0  0  0  0  0  0  0  0  0
  267.3730  249.9920  270.6650 C   0  0  0  0  0  0  0  0  0  0  0  0
  267.7560  248.9620  272.9090 C   0  0  0  0  0  0  0  0  0  0  0  0
  262.5270  249.9080  273.3670 N   0  0  0  0  0  0  0  0  0  0  0  0
  261.4760  250.7070  274.0660 C   0  0  2  0  0  0  0  0  0  0  0  0
  260.8970  249.8990  275.2340 C   0  0  0  0  0  0  0  0  0  0  0  0
  260.7290  250.4860  276.3210 O   0  0  0  0  0  0  0  0  0  0  0  0
  260.3770  251.1840  273.0950 C   0  0  2  0  0  0  0  0  0  0  0  0
  260.8770  252.3150  272.1920 C   0  0  0  0  0  0  0  0  0  0  0  0
  259.1250  251.5890  273.8570 C   0  0  0  0  0  0  0  0  0  0  0  0
  261.3830  253.5230  272.9450 C   0  0  0  0  0  0  0  0  0  0  0  0
  260.6390  248.6030  275.0310 N   0  0  0  0  0  0  0  0  0  0  0  0
  260.0400  247.7960  276.1110 C   0  0  0  0  0  0  0  0  0  0  0  0
  258.5360  247.6860  275.9400 C   0  0  0  0  0  0  0  0  0  0  0  0
  257.8440  247.4280  276.9440 O   0  0  0  0  0  0  0  0  0  0  0  0
  258.0560  247.8270  274.7010 N   0  0  0  0  0  0  0  0  0  0  0  0
  256.5980  247.7520  274.4140 C   0  0  2  0  0  0  0  0  0  0  0  0
  256.0730  246.3650  274.7980 C   0  0  0  0  0  0  0  0  0  0  0  0
  256.7500  245.3630  274.4960 O   0  0  0  0  0  0  0  0  0  0  0  0
  256.3180  248.0740  272.9410 C   0  0  0  0  0  0  0  0  0  0  0  0
  256.2990  249.5400  272.6300 C   0  0  0  0  0  0  0  0  0  0  0  0
  257.0030  250.1830  271.6540 C   0  0  0  0  0  0  0  0  0  0  0  0
  255.5350  250.5550  273.3060 C   0  0  0  0  0  0  0  0  0  0  0  0
  256.7270  251.5240  271.6710 N   0  0  0  0  0  0  0  0  0  0  0  0
  255.8320  251.7830  272.6760 C   0  0  0  0  0  0  0  0  0  0  0  0
  254.6340  250.5490  274.3760 C   0  0  0  0  0  0  0  0  0  0  0  0
  255.2580  252.9860  273.0830 C   0  0  0  0  0  0  0  0  0  0  0  0
  254.0670  251.7390  274.7770 C   0  0  0  0  0  0  0  0  0  0  0  0
  254.3760  252.9390  274.1380 C   0  0  0  0  0  0  0  0  0  0  0  0
  254.8810  246.3330  275.3980 N   0  0  0  0  0  0  0  0  0  0  0  0
  254.2150  245.0860  275.8630 C   0  0  2  0  0  0  0  0  0  0  0  0
  252.7690  245.0760  275.3530 C   0  0  0  0  0  0  0  0  0  0  0  0
  252.3270  246.1040  274.7990 O   0  0  0  0  0  0  0  0  0  0  0  0
  254.2770  244.9710  277.3900 C   0  0  0  0  0  0  0  0  0  0  0  0
  253.4670  246.0250  278.1300 C   0  0  0  0  0  0  0  0  0  0  0  0
  253.6260  245.9070  279.6340 C   0  0  0  0  0  0  0  0  0  0  0  0
  252.8490  246.9030  280.3580 N   0  0  0  0  0  0  0  0  0  0  0  0
  252.8440  247.0380  281.6780 C   0  0  0  0  0  0  0  0  0  0  0  0
  253.5820  246.2360  282.4280 N   0  0  0  0  0  0  0  0  0  0  0  0
  252.1040  247.9730  282.2460 N   0  0  0  0  0  0  0  0  0  0  0  0
  252.0650  243.9560  275.5550 N   0  0  0  0  0  0  0  0  0  0  0  0
  250.6510  243.7910  275.1160 C   0  0  2  0  0  0  0  0  0  0  0  0
  249.7340  244.5220  276.1050 C   0  0  0  0  0  0  0  0  0  0  0  0
  249.0680  243.8530  276.9190 O   0  0  0  0  0  0  0  0  0  0  0  0
  250.3100  242.3140  274.9030 C   0  0  0  0  0  0  0  0  0  0  0  0
  251.1730  241.6880  273.8270 C   0  0  0  0  0  0  0  0  0  0  0  0
  251.7330  242.3940  272.9920 O   0  0  0  0  0  0  0  0  0  0  0  0
  251.2940  240.3710  273.8320 N   0  0  0  0  0  0  0  0  0  0  0  0
  271.1140  253.2670  272.3350 N   0  0  0  0  0  0  0  0  0  0  0  0
  269.9860  254.1910  272.6350 C   0  0  2  0  0  0  0  0  0  0  0  0
  270.1380  255.4930  271.8370 C   0  0  0  0  0  0  0  0  0  0  0  0
  269.8530  256.5650  272.4060 O   0  0  0  0  0  0  0  0  0  0  0  0
  269.8210  254.4450  274.1370 C   0  0  0  0  0  0  0  0  0  0  0  0
  269.6320  253.1720  274.9350 C   0  0  0  0  0  0  0  0  0  0  0  0
  269.4750  253.2150  276.1530 O   0  0  0  0  0  0  0  0  0  0  0  0
  269.6450  252.0360  274.2580 N   0  0  0  0  0  0  0  0  0  0  0  0
  2  1  1  6
  3  2  1  0
  4  3  2  0
  5  2  1  0
  6  5  1  0
  7  6  1  0
  8  7  1  0
  9  8  1  0
 10  9  1  0
 11  9  2  0
 12  3  1  0
 13 12  1  1
 14 13  1  0
 15 14  2  0
 16 13  1  0
 17 16  1  0
 16 18  1  1
 19 17  1  0
 21 20  1  6
 22 21  1  0
 23 22  2  0
 24 21  1  0
 25 24  1  0
 26 25  2  0
 27 25  1  0
 29 28  1  6
 30 29  1  0
 31 30  2  0
 32 29  1  0
 33 32  1  0
 34 33  1  0
 35 33  1  0
 36 30  1  0
 37 36  1  0
 38 37  1  0
 39 38  2  0
 37 40  1  1
 41 40  1  0
 42 38  1  0
 43 42  1  0
 44 43  1  0
 45 44  2  0
 43 46  1  6
 47 46  1  0
 48 47  1  0
 49 47  1  0
 50 44  1  0
 51 50  1  6
 52 51  1  0
 53 52  2  0
 54 51  1  0
 55 54  1  0
 54 56  1  1
 57 52  1  0
 58 57  1  0
 59 58  1  0
 60 59  2  0
 58 61  1  1
 62 61  1  0
 63 62  2  0
 64 62  1  0
 65 59  1  0
 66 65  1  0
 67 66  1  0
 68 67  2  0
 66 69  1  6
 70 69  1  0
 71 70  1  0
 72 71  1  0
 73 72  1  0
 75 74  1  6
 76 75  1  0
 77 76  2  0
 78 75  1  0
 79 78  1  0
 80 76  1  0
 81 80  1  0
 82 81  1  0
 83 82  2  0
 81 84  1  6
 85 84  1  0
 86 85  1  0
 87 85  1  0
 88 82  1  0
 89 88  1  6
 90 89  1  0
 91 90  2  0
 92 89  1  0
 93 92  1  0
 92 94  1  1
 95 93  1  0
 96 90  1  0
 97 96  1  0
 98 97  1  0
 99 98  2  0
100 98  1  0
101100  1  0
102101  1  0
103102  2  0
101104  1  6
105104  1  0
106105  2  0
107105  1  0
108106  1  0
109107  2  0
109108  1  0
110107  1  0
111109  1  0
112110  2  0
113112  1  0
113111  2  0
114102  1  0
115114  1  0
116115  1  0
117116  2  0
115118  1  1
119118  1  0
120119  1  0
121120  1  0
122121  1  0
123122  1  0
124122  2  0
125116  1  0
126125  1  0
127126  1  0
128127  2  0
126129  1  1
130129  1  0
131130  2  0
132130  1  0
134133  1  1
135134  1  0
136135  2  0
137134  1  0
138137  1  0
139138  2  0
140138  1  0
M  END
$$$$
