
     RDKit          3D

108102  0  0  0  0  0  0  0  0999 V2000
  193.7940  143.5860  182.9390 N   0  0  0  0  0  0  0  0  0  0  0  0
  195.1770  143.8550  182.6000 C   0  0  2  0  0  0  0  0  0  0  0  0
  196.0840  143.5440  183.7860 C   0  0  0  0  0  0  0  0  0  0  0  0
  195.6350  143.3250  184.9100 O   0  0  0  0  0  0  0  0  0  0  0  0
  195.3490  145.3080  182.1730 C   0  0  0  0  0  0  0  0  0  0  0  0
  194.7080  145.5990  180.8430 C   0  0  0  0  0  0  0  0  0  0  0  0
  194.7670  144.7910  179.9240 O   0  0  0  0  0  0  0  0  0  0  0  0
  194.0850  146.7600  180.7320 N   0  0  0  0  0  0  0  0  0  0  0  0
  201.5090  142.4980  169.8350 N   0  0  0  0  0  0  0  0  0  0  0  0
  200.0790  142.7510  169.9180 C   0  0  2  0  0  0  0  0  0  0  0  0
  199.3340  142.0300  168.8030 C   0  0  0  0  0  0  0  0  0  0  0  0
  199.8650  141.8020  167.7160 O   0  0  0  0  0  0  0  0  0  0  0  0
  199.8040  144.2470  169.8490 C   0  0  0  0  0  0  0  0  0  0  0  0
  198.4150  144.5020  169.8830 O   0  0  0  0  0  0  0  0  0  0  0  0
  198.0820  141.6750  169.0800 N   0  0  0  0  0  0  0  0  0  0  0  0
  197.3150  140.8150  168.1940 C   0  0  2  0  0  0  0  0  0  0  0  0
  196.3540  141.5680  167.2880 C   0  0  0  0  0  0  0  0  0  0  0  0
  195.8100  140.9640  166.3600 O   0  0  0  0  0  0  0  0  0  0  0  0
  196.5300  139.7910  169.0130 C   0  0  0  0  0  0  0  0  0  0  0  0
  195.5770  140.4400  169.8280 O   0  0  0  0  0  0  0  0  0  0  0  0
  196.1230  142.8440  167.5240 N   0  0  0  0  0  0  0  0  0  0  0  0
  195.2420  143.6080  166.6650 C   0  0  0  0  0  0  0  0  0  0  0  0
  194.6060  144.7490  167.4270 C   0  0  0  0  0  0  0  0  0  0  0  0
  194.8740  144.9720  168.6020 O   0  0  0  0  0  0  0  0  0  0  0  0
  193.7510  145.4750  166.7190 N   0  0  0  0  0  0  0  0  0  0  0  0
  193.0490  146.5910  167.3100 C   0  0  0  0  0  0  0  0  0  0  0  0
  193.2460  147.8790  166.5460 C   0  0  0  0  0  0  0  0  0  0  0  0
  193.5630  147.8590  165.3570 O   0  0  0  0  0  0  0  0  0  0  0  0
  193.0570  149.0070  167.2190 N   0  0  0  0  0  0  0  0  0  0  0  0
  193.3120  150.2960  166.6080 C   0  0  2  0  0  0  0  0  0  0  0  0
  194.8020  150.6080  166.6370 C   0  0  0  0  0  0  0  0  0  0  0  0
  195.5900  149.9450  167.3100 O   0  0  0  0  0  0  0  0  0  0  0  0
  192.5310  151.3900  167.3230 C   0  0  0  0  0  0  0  0  0  0  0  0
  191.0680  151.3800  166.9670 C   0  0  0  0  0  0  0  0  0  0  0  0
  190.6650  150.5220  166.1570 O   0  0  0  0  0  0  0  0  0  0  0  0
  190.3200  152.2290  167.4930 O   0  0  0  0  0  0  0  0  0  0  0  0
  196.4570  151.3310  170.1970 N   0  0  0  0  0  0  0  0  0  0  0  0
  196.7130  150.2710  171.1650 C   0  0  2  0  0  0  0  0  0  0  0  0
  197.5620  149.1460  170.6050 C   0  0  0  0  0  0  0  0  0  0  0  0
  198.0440  148.3090  171.3810 O   0  0  0  0  0  0  0  0  0  0  0  0
  195.3950  149.6930  171.7160 C   0  0  0  0  0  0  0  0  0  0  0  0
  194.6550  150.7570  172.4790 C   0  0  0  0  0  0  0  0  0  0  0  0
  194.5450  149.1530  170.5940 C   0  0  0  0  0  0  0  0  0  0  0  0
  188.6690  158.6370  173.4970 N   0  0  0  0  0  0  0  0  0  0  0  0
  187.8930  157.8650  172.5320 C   0  0  2  0  0  0  0  0  0  0  0  0
  186.6970  158.6160  171.9680 C   0  0  0  0  0  0  0  0  0  0  0  0
  186.0990  158.1710  170.9860 O   0  0  0  0  0  0  0  0  0  0  0  0
  187.4210  156.5570  173.1630 C   0  0  0  0  0  0  0  0  0  0  0  0
  188.4770  155.4720  173.2030 C   0  0  0  0  0  0  0  0  0  0  0  0
  189.3740  155.5790  174.4140 C   0  0  0  0  0  0  0  0  0  0  0  0
  189.6340  156.6730  174.9130 O   0  0  0  0  0  0  0  0  0  0  0  0
  189.8500  154.4390  174.8990 N   0  0  0  0  0  0  0  0  0  0  0  0
  198.6990  141.4540  179.1710 N   0  0  0  0  0  0  0  0  0  0  0  0
  197.4000  140.8010  179.0340 C   0  0  2  0  0  0  0  0  0  0  0  0
  197.6410  139.3480  178.6730 C   0  0  0  0  0  0  0  0  0  0  0  0
  198.3030  139.0650  177.6730 O   0  0  0  0  0  0  0  0  0  0  0  0
  196.5530  141.4850  177.9720 C   0  0  2  0  0  0  0  0  0  0  0  0
  196.1320  142.7630  178.4560 O   0  0  0  0  0  0  0  0  0  0  0  0
  195.3330  140.6600  177.6610 C   0  0  0  0  0  0  0  0  0  0  0  0
  200.9660  139.4520  176.1340 N   0  0  0  0  0  0  0  0  0  0  0  0
  201.0370  140.4060  175.0400 C   0  0  2  0  0  0  0  0  0  0  0  0
  200.8180  141.8060  175.5890 C   0  0  0  0  0  0  0  0  0  0  0  0
  200.0970  141.9790  176.5770 O   0  0  0  0  0  0  0  0  0  0  0  0
  199.9850  140.1090  173.9660 C   0  0  0  0  0  0  0  0  0  0  0  0
  199.9980  138.6890  173.4790 C   0  0  0  0  0  0  0  0  0  0  0  0
  198.9200  138.4490  172.4590 C   0  0  0  0  0  0  0  0  0  0  0  0
  199.4850  138.1110  171.1620 N   0  0  0  0  0  0  0  0  0  0  0  0
  199.8450  136.8870  170.8060 C   0  0  0  0  0  0  0  0  0  0  0  0
  199.6980  135.8820  171.6490 N   0  0  0  0  0  0  0  0  0  0  0  0
  200.3520  136.6680  169.6060 N   0  0  0  0  0  0  0  0  0  0  0  0
  201.4210  142.8190  174.9750 N   0  0  0  0  0  0  0  0  0  0  0  0
  201.2580  144.1830  175.4820 C   0  0  2  0  0  0  0  0  0  0  0  0
  199.8680  144.7270  175.2050 C   0  0  0  0  0  0  0  0  0  0  0  0
  199.2730  144.4610  174.1600 O   0  0  0  0  0  0  0  0  0  0  0  0
  202.3230  144.9670  174.7160 C   0  0  0  0  0  0  0  0  0  0  0  0
  202.4980  144.2020  173.4720 C   0  0  0  0  0  0  0  0  0  0  0  0
  202.3620  142.7700  173.8490 C   0  0  0  0  0  0  0  0  0  0  0  0
  199.3560  145.5040  176.1530 N   0  0  0  0  0  0  0  0  0  0  0  0
  198.0290  146.0700  176.0320 C   0  0  0  0  0  0  0  0  0  0  0  0
  197.9850  147.5450  176.3620 C   0  0  0  0  0  0  0  0  0  0  0  0
  199.0030  148.2320  176.2730 O   0  0  0  0  0  0  0  0  0  0  0  0
  196.8220  148.0460  176.7410 N   0  0  0  0  0  0  0  0  0  0  0  0
  196.6640  149.4390  177.0850 C   0  0  0  0  0  0  0  0  0  0  0  0
  195.3740  149.9800  176.5150 C   0  0  0  0  0  0  0  0  0  0  0  0
  194.4500  149.2300  176.2160 O   0  0  0  0  0  0  0  0  0  0  0  0
  195.3140  151.3000  176.3740 N   0  0  0  0  0  0  0  0  0  0  0  0
  194.1610  151.9320  175.7680 C   0  0  0  0  0  0  0  0  0  0  0  0
  193.3530  152.7900  176.7170 C   0  0  0  0  0  0  0  0  0  0  0  0
  192.8890  153.8680  176.3420 O   0  0  0  0  0  0  0  0  0  0  0  0
  193.1740  152.3210  177.9460 N   0  0  0  0  0  0  0  0  0  0  0  0
  192.4420  153.0510  178.9720 C   0  0  2  0  0  0  0  0  0  0  0  0
  193.4420  153.8090  179.8290 C   0  0  0  0  0  0  0  0  0  0  0  0
  194.3130  153.1980  180.4540 O   0  0  0  0  0  0  0  0  0  0  0  0
  191.6160  152.0950  179.8280 C   0  0  0  0  0  0  0  0  0  0  0  0
  190.6540  152.8150  180.7420 C   0  0  0  0  0  0  0  0  0  0  0  0
  190.5300  154.0500  180.6260 O   0  0  0  0  0  0  0  0  0  0  0  0
  190.0180  152.1440  181.5780 O   0  0  0  0  0  0  0  0  0  0  0  0
  193.0540  155.2790  182.5790 N   0  0  0  0  0  0  0  0  0  0  0  0
  192.9130  155.1300  184.0210 C   0  0  2  0  0  0  0  0  0  0  0  0
  193.9690  154.1980  184.5900 C   0  0  0  0  0  0  0  0  0  0  0  0
  194.4170  154.3890  185.7230 O   0  0  0  0  0  0  0  0  0  0  0  0
  191.5180  154.6300  184.3670 C   0  0  0  0  0  0  0  0  0  0  0  0
  190.4410  155.6650  184.1820 C   0  0  0  0  0  0  0  0  0  0  0  0
  189.1340  155.1770  184.7500 C   0  0  0  0  0  0  0  0  0  0  0  0
  187.9960  155.9030  184.2030 N   0  0  0  0  0  0  0  0  0  0  0  0
  187.3230  155.5240  183.1240 C   0  0  0  0  0  0  0  0  0  0  0  0
  187.6750  154.4270  182.4730 N   0  0  0  0  0  0  0  0  0  0  0  0
  186.2990  156.2430  182.6940 N   0  0  0  0  0  0  0  0  0  0  0  0
  2  1  1  1
  3  2  1  0
  4  3  2  0
  5  2  1  0
  6  5  1  0
  7  6  2  0
  8  6  1  0
 10  9  1  6
 11 10  1  0
 12 11  2  0
 13 10  1  0
 14 13  1  0
 15 11  1  0
 16 15  1  0
 17 16  1  0
 18 17  2  0
 16 19  1  1
 20 19  1  0
 21 17  1  0
 22 21  1  0
 23 22  1  0
 24 23  2  0
 25 23  1  0
 26 25  1  0
 27 26  1  0
 28 27  2  0
 29 27  1  0
 30 29  1  0
 31 30  1  0
 32 31  2  0
 30 33  1  1
 34 33  1  0
 35 34  2  0
 36 34  1  0
 38 37  1  6
 39 38  1  0
 40 39  2  0
 41 38  1  0
 42 41  1  0
 43 41  1  0
 45 44  1  1
 46 45  1  0
 47 46  2  0
 48 45  1  0
 49 48  1  0
 50 49  1  0
 51 50  2  0
 52 50  1  0
 54 53  1  6
 55 54  1  0
 56 55  2  0
 57 54  1  0
 58 57  1  0
 57 59  1  1
 61 60  1  1
 62 61  1  0
 63 62  2  0
 64 61  1  0
 65 64  1  0
 66 65  1  0
 67 66  1  0
 68 67  1  0
 69 68  1  0
 70 68  2  0
 71 62  1  0
 72 71  1  0
 72 73  1  6
 74 73  2  0
 75 72  1  0
 76 75  1  0
 77 71  1  0
 77 76  1  0
 78 73  1  0
 79 78  1  0
 80 79  1  0
 81 80  2  0
 82 80  1  0
 83 82  1  0
 84 83  1  0
 85 84  2  0
 86 84  1  0
 87 86  1  0
 88 87  1  0
 89 88  2  0
 90 88  1  0
 91 90  1  0
 92 91  1  0
 93 92  2  0
 91 94  1  1
 95 94  1  0
 96 95  2  0
 97 95  1  0
 99 98  1  6
100 99  1  0
101100  2  0
102 99  1  0
103102  1  0
104103  1  0
105104  1  0
106105  1  0
107106  1  0
108106  2  0
M  END
$$$$
