
     RDKit          3D

143142  0  0  0  0  0  0  0  0999 V2000
   56.8640  -37.0900   23.1780 N   0  0  0  0  0  0  0  0  0  0  0  0
   56.9880  -38.2230   22.2660 C   0  0  2  0  0  0  0  0  0  0  0  0
   58.3850  -38.2970   21.6580 C   0  0  0  0  0  0  0  0  0  0  0  0
   58.9740  -39.3820   21.5650 O   0  0  0  0  0  0  0  0  0  0  0  0
   55.9220  -38.1430   21.1670 C   0  0  0  0  0  0  0  0  0  0  0  0
   56.0110  -36.8580   20.3470 C   0  0  0  0  0  0  0  0  0  0  0  0
   56.2640  -35.7740   20.8860 O   0  0  0  0  0  0  0  0  0  0  0  0
   55.8090  -36.9770   19.0370 N   0  0  0  0  0  0  0  0  0  0  0  0
   60.6430  -41.2260   23.0640 N   0  0  0  0  0  0  0  0  0  0  0  0
   60.5310  -42.3640   22.1650 C   0  0  2  0  0  0  0  0  0  0  0  0
   61.3250  -42.2390   20.8710 C   0  0  0  0  0  0  0  0  0  0  0  0
   61.3640  -43.2080   20.1020 O   0  0  0  0  0  0  0  0  0  0  0  0
   59.0570  -42.6220   21.8090 C   0  0  0  0  0  0  0  0  0  0  0  0
   58.1560  -42.9320   22.9890 C   0  0  0  0  0  0  0  0  0  0  0  0
   58.6660  -43.4630   24.1610 C   0  0  0  0  0  0  0  0  0  0  0  0
   56.7910  -42.6910   22.9220 C   0  0  0  0  0  0  0  0  0  0  0  0
   57.8470  -43.7420   25.2380 C   0  0  0  0  0  0  0  0  0  0  0  0
   55.9610  -42.9700   23.9920 C   0  0  0  0  0  0  0  0  0  0  0  0
   56.4920  -43.4950   25.1490 C   0  0  0  0  0  0  0  0  0  0  0  0
   55.6700  -43.7710   26.2190 O   0  0  0  0  0  0  0  0  0  0  0  0
   58.2720  -42.4850   15.9400 N   0  0  0  0  0  0  0  0  0  0  0  0
   57.6940  -43.5530   16.7440 C   0  0  2  0  0  0  0  0  0  0  0  0
   56.6980  -42.9530   17.7250 C   0  0  0  0  0  0  0  0  0  0  0  0
   57.0580  -42.0850   18.5270 O   0  0  0  0  0  0  0  0  0  0  0  0
   58.7810  -44.3270   17.4840 C   0  0  0  0  0  0  0  0  0  0  0  0
   58.2650  -45.5280   18.2660 C   0  0  0  0  0  0  0  0  0  0  0  0
   59.4190  -46.3130   18.8810 C   0  0  0  0  0  0  0  0  0  0  0  0
   60.4310  -46.6010   17.8720 N   0  0  0  0  0  0  0  0  0  0  0  0
   60.3440  -47.5900   16.9940 C   0  0  0  0  0  0  0  0  0  0  0  0
   59.3360  -48.4490   17.0210 N   0  0  0  0  0  0  0  0  0  0  0  0
   61.2920  -47.7180   16.0660 N   0  0  0  0  0  0  0  0  0  0  0  0
   55.4460  -43.4110   17.6500 N   0  0  0  0  0  0  0  0  0  0  0  0
   54.3690  -42.9630   18.5250 C   0  0  2  0  0  0  0  0  0  0  0  0
   54.1330  -43.9000   19.7040 C   0  0  0  0  0  0  0  0  0  0  0  0
   53.8490  -43.4300   20.8070 O   0  0  0  0  0  0  0  0  0  0  0  0
   53.0650  -42.8050   17.7270 C   0  0  0  0  0  0  0  0  0  0  0  0
   51.7930  -42.5120   18.5400 C   0  0  0  0  0  0  0  0  0  0  0  0
   51.8870  -41.1580   19.2290 C   0  0  0  0  0  0  0  0  0  0  0  0
   50.5250  -42.6040   17.6920 C   0  0  0  0  0  0  0  0  0  0  0  0
   54.2400  -45.2120   19.5050 N   0  0  0  0  0  0  0  0  0  0  0  0
   54.0710  -46.1870   20.5740 C   0  0  2  0  0  0  0  0  0  0  0  0
   55.4160  -46.8080   20.9290 C   0  0  0  0  0  0  0  0  0  0  0  0
   56.1230  -47.3130   20.0490 O   0  0  0  0  0  0  0  0  0  0  0  0
   53.0820  -47.2820   20.1690 C   0  0  0  0  0  0  0  0  0  0  0  0
   51.7380  -46.7640   19.7610 C   0  0  0  0  0  0  0  0  0  0  0  0
   50.8080  -46.3790   20.7120 C   0  0  0  0  0  0  0  0  0  0  0  0
   51.4000  -46.6650   18.4220 C   0  0  0  0  0  0  0  0  0  0  0  0
   49.5640  -45.9010   20.3300 C   0  0  0  0  0  0  0  0  0  0  0  0
   50.1610  -46.1930   18.0340 C   0  0  0  0  0  0  0  0  0  0  0  0
   49.2430  -45.8100   18.9860 C   0  0  0  0  0  0  0  0  0  0  0  0
   55.7660  -46.7590   22.2150 N   0  0  0  0  0  0  0  0  0  0  0  0
   56.9220  -47.4640   22.7540 C   0  0  2  0  0  0  0  0  0  0  0  0
   56.6500  -47.7730   24.2200 C   0  0  0  0  0  0  0  0  0  0  0  0
   55.9540  -47.0200   24.9030 O   0  0  0  0  0  0  0  0  0  0  0  0
   58.2110  -46.6510   22.6080 C   0  0  0  0  0  0  0  0  0  0  0  0
   59.4600  -47.5020   22.6780 C   0  0  0  0  0  0  0  0  0  0  0  0
   60.7170  -46.6990   22.3970 C   0  0  0  0  0  0  0  0  0  0  0  0
   61.8500  -47.5850   22.1500 N   0  0  0  0  0  0  0  0  0  0  0  0
   62.7240  -47.9680   23.0720 C   0  0  0  0  0  0  0  0  0  0  0  0
   62.6660  -47.5070   24.3130 N   0  0  0  0  0  0  0  0  0  0  0  0
   63.6780  -48.8330   22.7390 N   0  0  0  0  0  0  0  0  0  0  0  0
   57.2070  -48.8910   24.6950 N   0  0  0  0  0  0  0  0  0  0  0  0
   56.8580  -49.3790   26.0270 C   0  0  2  0  0  0  0  0  0  0  0  0
   57.5410  -48.5600   27.1190 C   0  0  0  0  0  0  0  0  0  0  0  0
   56.9060  -48.1910   28.1110 O   0  0  0  0  0  0  0  0  0  0  0  0
   57.2060  -50.8650   26.1510 C   0  0  0  0  0  0  0  0  0  0  0  0
   56.5250  -51.5940   27.3210 C   0  0  0  0  0  0  0  0  0  0  0  0
   57.0430  -53.0280   27.4510 C   0  0  0  0  0  0  0  0  0  0  0  0
   56.5840  -53.6980   28.7430 C   0  0  0  0  0  0  0  0  0  0  0  0
   57.4300  -54.8840   29.0860 N   0  0  0  0  0  0  0  0  0  0  0  0
   58.8300  -48.2690   26.9660 N   0  0  0  0  0  0  0  0  0  0  0  0
   59.5470  -47.4400   27.9310 C   0  0  2  0  0  0  0  0  0  0  0  0
   60.3860  -46.4100   27.1800 C   0  0  0  0  0  0  0  0  0  0  0  0
   60.3970  -46.3710   25.9470 O   0  0  0  0  0  0  0  0  0  0  0  0
   60.3990  -48.2950   28.8810 C   0  0  0  0  0  0  0  0  0  0  0  0
   61.1360  -49.2770   28.1800 O   0  0  0  0  0  0  0  0  0  0  0  0
   53.0080  -53.0630   17.9420 N   0  0  0  0  0  0  0  0  0  0  0  0
   53.0460  -52.7380   19.3590 C   0  0  2  0  0  0  0  0  0  0  0  0
   51.8870  -53.4060   20.0850 C   0  0  0  0  0  0  0  0  0  0  0  0
   50.7290  -53.2800   19.6750 O   0  0  0  0  0  0  0  0  0  0  0  0
   52.9990  -51.2250   19.5570 C   0  0  0  0  0  0  0  0  0  0  0  0
   53.0920  -50.8080   21.0020 C   0  0  0  0  0  0  0  0  0  0  0  0
   54.3280  -50.6830   21.6270 C   0  0  0  0  0  0  0  0  0  0  0  0
   51.9480  -50.5420   21.7470 C   0  0  0  0  0  0  0  0  0  0  0  0
   54.4260  -50.3040   22.9500 C   0  0  0  0  0  0  0  0  0  0  0  0
   52.0360  -50.1630   23.0750 C   0  0  0  0  0  0  0  0  0  0  0  0
   53.2790  -50.0450   23.6700 C   0  0  0  0  0  0  0  0  0  0  0  0
   53.3800  -49.6660   24.9900 O   0  0  0  0  0  0  0  0  0  0  0  0
   52.2030  -54.1060   21.1700 N   0  0  0  0  0  0  0  0  0  0  0  0
   51.2140  -54.8590   21.9320 C   0  0  2  0  0  0  0  0  0  0  0  0
   50.6920  -53.9960   23.0760 C   0  0  0  0  0  0  0  0  0  0  0  0
   51.4200  -53.7070   24.0310 O   0  0  0  0  0  0  0  0  0  0  0  0
   51.8180  -56.1560   22.4560 C   0  0  0  0  0  0  0  0  0  0  0  0
   50.8600  -56.9460   23.3060 C   0  0  0  0  0  0  0  0  0  0  0  0
   51.4520  -58.2470   23.7950 C   0  0  0  0  0  0  0  0  0  0  0  0
   52.4440  -58.7370   23.2520 O   0  0  0  0  0  0  0  0  0  0  0  0
   50.8460  -58.8160   24.8300 N   0  0  0  0  0  0  0  0  0  0  0  0
   49.4250  -53.6000   22.9870 N   0  0  0  0  0  0  0  0  0  0  0  0
   48.8120  -52.7240   23.9730 C   0  0  2  0  0  0  0  0  0  0  0  0
   47.9640  -53.4710   24.9920 C   0  0  0  0  0  0  0  0  0  0  0  0
   47.3740  -52.8340   25.8680 O   0  0  0  0  0  0  0  0  0  0  0  0
   47.9590  -51.6650   23.2720 C   0  0  0  0  0  0  0  0  0  0  0  0
   47.8800  -54.7950   24.9010 N   0  0  0  0  0  0  0  0  0  0  0  0
   47.1120  -55.5570   25.8610 C   0  0  0  0  0  0  0  0  0  0  0  0
   47.7770  -56.8620   26.2340 C   0  0  0  0  0  0  0  0  0  0  0  0
   48.9550  -57.0790   25.9310 O   0  0  0  0  0  0  0  0  0  0  0  0
   47.0310  -57.7460   26.8930 N   0  0  0  0  0  0  0  0  0  0  0  0
   47.5840  -59.0300   27.2920 C   0  0  2  0  0  0  0  0  0  0  0  0
   47.7450  -59.9920   26.1210 C   0  0  0  0  0  0  0  0  0  0  0  0
   48.5640  -60.9140   26.2060 O   0  0  0  0  0  0  0  0  0  0  0  0
   46.7040  -59.6590   28.3740 C   0  0  0  0  0  0  0  0  0  0  0  0
   45.3600  -59.7670   27.9380 O   0  0  0  0  0  0  0  0  0  0  0  0
   42.9620  -54.6790   17.1450 N   0  0  0  0  0  0  0  0  0  0  0  0
   42.7100  -54.1030   18.4560 C   0  0  2  0  0  0  0  0  0  0  0  0
   43.8850  -54.3930   19.3780 C   0  0  0  0  0  0  0  0  0  0  0  0
   44.3490  -55.5350   19.4680 O   0  0  0  0  0  0  0  0  0  0  0  0
   41.4190  -54.6470   19.0570 C   0  0  0  0  0  0  0  0  0  0  0  0
   40.9820  -53.9070   20.2840 C   0  0  0  0  0  0  0  0  0  0  0  0
   40.3750  -52.6640   20.1730 C   0  0  0  0  0  0  0  0  0  0  0  0
   41.2010  -54.4360   21.5480 C   0  0  0  0  0  0  0  0  0  0  0  0
   39.9760  -51.9630   21.3050 C   0  0  0  0  0  0  0  0  0  0  0  0
   40.8100  -53.7450   22.6870 C   0  0  0  0  0  0  0  0  0  0  0  0
   40.1970  -52.5030   22.5660 C   0  0  0  0  0  0  0  0  0  0  0  0
   44.3730  -53.3490   20.0510 N   0  0  0  0  0  0  0  0  0  0  0  0
   45.5330  -53.4160   20.9380 C   0  0  2  0  0  0  0  0  0  0  0  0
   46.8000  -53.8680   20.2170 C   0  0  0  0  0  0  0  0  0  0  0  0
   47.7430  -54.3540   20.8530 O   0  0  0  0  0  0  0  0  0  0  0  0
   45.2590  -54.3160   22.1460 C   0  0  0  0  0  0  0  0  0  0  0  0
   44.3380  -53.6630   23.1490 C   0  0  0  0  0  0  0  0  0  0  0  0
   44.2470  -52.4340   23.2150 O   0  0  0  0  0  0  0  0  0  0  0  0
   43.6510  -54.4770   23.9410 N   0  0  0  0  0  0  0  0  0  0  0  0
   49.1240  -52.1740   17.2360 N   0  0  0  0  0  0  0  0  0  0  0  0
   49.2340  -50.9850   16.4070 C   0  0  2  0  0  0  0  0  0  0  0  0
   50.6360  -50.8370   15.8350 C   0  0  0  0  0  0  0  0  0  0  0  0
   51.6320  -51.1310   16.5070 O   0  0  0  0  0  0  0  0  0  0  0  0
   48.8560  -49.7440   17.2150 C   0  0  0  0  0  0  0  0  0  0  0  0
   47.5720  -49.9270   17.9900 C   0  0  0  0  0  0  0  0  0  0  0  0
   46.3470  -50.0010   17.3330 C   0  0  0  0  0  0  0  0  0  0  0  0
   47.5820  -50.0350   19.3710 C   0  0  0  0  0  0  0  0  0  0  0  0
   45.1680  -50.1730   18.0350 C   0  0  0  0  0  0  0  0  0  0  0  0
   46.4100  -50.2010   20.0810 C   0  0  0  0  0  0  0  0  0  0  0  0
   45.2050  -50.2730   19.4090 C   0  0  0  0  0  0  0  0  0  0  0  0
   44.0330  -50.4450   20.1110 O   0  0  0  0  0  0  0  0  0  0  0  0
  2  1  1  1
  3  2  1  0
  4  3  2  0
  5  2  1  0
  6  5  1  0
  7  6  2  0
  8  6  1  0
 10  9  1  6
 11 10  1  0
 12 11  2  0
 13 10  1  0
 14 13  1  0
 15 14  2  0
 16 14  1  0
 17 15  1  0
 18 16  2  0
 19 17  2  0
 19 18  1  0
 20 19  1  0
 22 21  1  1
 23 22  1  0
 24 23  2  0
 25 22  1  0
 26 25  1  0
 27 26  1  0
 28 27  1  0
 29 28  1  0
 30 29  1  0
 31 29  2  0
 32 23  1  0
 33 32  1  0
 34 33  1  0
 35 34  2  0
 33 36  1  6
 37 36  1  0
 38 37  1  0
 39 37  1  0
 40 34  1  0
 41 40  1  0
 42 41  1  0
 43 42  2  0
 41 44  1  6
 45 44  1  0
 46 45  2  0
 47 45  1  0
 48 46  1  0
 49 47  2  0
 50 49  1  0
 50 48  2  0
 51 42  1  0
 52 51  1  0
 53 52  1  0
 54 53  2  0
 52 55  1  1
 56 55  1  0
 57 56  1  0
 58 57  1  0
 59 58  1  0
 60 59  1  0
 61 59  2  0
 62 53  1  0
 63 62  1  0
 64 63  1  0
 65 64  2  0
 63 66  1  6
 67 66  1  0
 68 67  1  0
 69 68  1  0
 70 69  1  0
 71 64  1  0
 72 71  1  0
 73 72  1  0
 74 73  2  0
 72 75  1  6
 76 75  1  0
 78 77  1  6
 79 78  1  0
 80 79  2  0
 81 78  1  0
 82 81  1  0
 83 82  2  0
 84 82  1  0
 85 83  1  0
 86 84  2  0
 87 86  1  0
 87 85  2  0
 88 87  1  0
 89 79  1  0
 90 89  1  0
 91 90  1  0
 92 91  2  0
 90 93  1  1
 94 93  1  0
 95 94  1  0
 96 95  2  0
 97 95  1  0
 98 91  1  0
 99 98  1  0
100 99  1  0
101100  2  0
 99102  1  6
103100  1  0
104103  1  0
105104  1  0
106105  2  0
107105  1  0
108107  1  0
109108  1  0
110109  2  0
108111  1  1
112111  1  0
114113  1  6
115114  1  0
116115  2  0
117114  1  0
118117  1  0
119118  2  0
120118  1  0
121119  1  0
122120  2  0
123121  2  0
123122  1  0
124115  1  0
125124  1  0
126125  1  0
127126  2  0
125128  1  1
129128  1  0
130129  2  0
131129  1  0
133132  1  1
134133  1  0
135134  2  0
136133  1  0
137136  1  0
138137  2  0
139137  1  0
140138  1  0
141139  2  0
142141  1  0
142140  2  0
143142  1  0
M  END
$$$$
