
     RDKit          3D

128128  0  0  0  0  0  0  0  0999 V2000
    1.8100   55.7590   -3.7020 N   0  0  0  0  0  0  0  0  0  0  0  0
    2.9320   55.1430   -3.0090 C   0  0  2  0  0  0  0  0  0  0  0  0
    4.0780   54.9070   -3.9840 C   0  0  0  0  0  0  0  0  0  0  0  0
    3.8690   54.7390   -5.1900 O   0  0  0  0  0  0  0  0  0  0  0  0
    2.5250   53.8110   -2.3670 C   0  0  0  0  0  0  0  0  0  0  0  0
    1.7060   53.9380   -1.0960 C   0  0  0  0  0  0  0  0  0  0  0  0
    1.7890   52.6750   -0.2470 C   0  0  0  0  0  0  0  0  0  0  0  0
    0.8820   51.6230   -0.6900 N   0  0  0  0  0  0  0  0  0  0  0  0
   -0.1290   51.1510    0.0350 C   0  0  0  0  0  0  0  0  0  0  0  0
   -0.3630   51.6340    1.2470 N   0  0  0  0  0  0  0  0  0  0  0  0
   -0.9030   50.1880   -0.4500 N   0  0  0  0  0  0  0  0  0  0  0  0
   -4.0500   61.9880    6.3890 N   0  0  0  0  0  0  0  0  0  0  0  0
   -5.2560   61.3190    5.9210 C   0  0  2  0  0  0  0  0  0  0  0  0
   -5.9290   62.0510    4.7650 C   0  0  0  0  0  0  0  0  0  0  0  0
   -7.0880   61.7640    4.4490 O   0  0  0  0  0  0  0  0  0  0  0  0
   -6.2300   61.1400    7.0870 C   0  0  0  0  0  0  0  0  0  0  0  0
   -5.6680   60.2790    8.1960 C   0  0  0  0  0  0  0  0  0  0  0  0
   -5.7560   60.6730    9.5260 C   0  0  0  0  0  0  0  0  0  0  0  0
   -5.0450   59.0680    7.9100 C   0  0  0  0  0  0  0  0  0  0  0  0
   -5.2380   59.8850   10.5410 C   0  0  0  0  0  0  0  0  0  0  0  0
   -4.5250   58.2750    8.9150 C   0  0  0  0  0  0  0  0  0  0  0  0
   -4.6240   58.6870   10.2280 C   0  0  0  0  0  0  0  0  0  0  0  0
   -4.1070   57.8980   11.2310 O   0  0  0  0  0  0  0  0  0  0  0  0
   -6.8630   56.4950   -2.0150 N   0  0  0  0  0  0  0  0  0  0  0  0
   -6.9330   55.7050   -3.2330 C   0  0  2  0  0  0  0  0  0  0  0  0
   -8.2280   54.9070   -3.2320 C   0  0  0  0  0  0  0  0  0  0  0  0
   -8.7160   54.4940   -2.1780 O   0  0  0  0  0  0  0  0  0  0  0  0
   -5.7330   54.7550   -3.3750 C   0  0  0  0  0  0  0  0  0  0  0  0
   -5.6210   53.7020   -2.2850 C   0  0  0  0  0  0  0  0  0  0  0  0
   -5.0110   53.9940   -1.0710 C   0  0  0  0  0  0  0  0  0  0  0  0
   -6.1050   52.4120   -2.4790 C   0  0  0  0  0  0  0  0  0  0  0  0
   -4.8960   53.0410   -0.0770 C   0  0  0  0  0  0  0  0  0  0  0  0
   -5.9940   51.4450   -1.4840 C   0  0  0  0  0  0  0  0  0  0  0  0
   -5.3860   51.7700   -0.2870 C   0  0  0  0  0  0  0  0  0  0  0  0
   -5.2640   50.8280    0.7110 O   0  0  0  0  0  0  0  0  0  0  0  0
   -9.7820   54.4270    0.4970 N   0  0  0  0  0  0  0  0  0  0  0  0
   -8.9430   54.1670    1.6540 C   0  0  2  0  0  0  0  0  0  0  0  0
   -7.8340   55.2040    1.7150 C   0  0  0  0  0  0  0  0  0  0  0  0
   -7.2510   55.5650    0.6880 O   0  0  0  0  0  0  0  0  0  0  0  0
   -8.3420   52.7580    1.6100 C   0  0  0  0  0  0  0  0  0  0  0  0
   -7.5720   52.3840    2.8620 C   0  0  0  0  0  0  0  0  0  0  0  0
   -8.3850   52.5990    4.1260 C   0  0  0  0  0  0  0  0  0  0  0  0
   -9.5690   52.2600    4.1870 O   0  0  0  0  0  0  0  0  0  0  0  0
   -7.7530   53.1770    5.1420 N   0  0  0  0  0  0  0  0  0  0  0  0
   -7.5460   55.6810    2.9200 N   0  0  0  0  0  0  0  0  0  0  0  0
   -6.4800   56.6510    3.1080 C   0  0  2  0  0  0  0  0  0  0  0  0
   -5.1220   55.9620    3.0910 C   0  0  0  0  0  0  0  0  0  0  0  0
   -4.9540   54.8660    3.6340 O   0  0  0  0  0  0  0  0  0  0  0  0
   -6.6660   57.4010    4.4250 C   0  0  0  0  0  0  0  0  0  0  0  0
   -5.5830   58.2830    4.6580 O   0  0  0  0  0  0  0  0  0  0  0  0
   -4.1480   56.6120    2.4530 N   0  0  0  0  0  0  0  0  0  0  0  0
   -2.7790   56.1160    2.5140 C   0  0  2  0  0  0  0  0  0  0  0  0
   -2.1930   56.2540    3.9140 C   0  0  0  0  0  0  0  0  0  0  0  0
   -1.3830   55.4170    4.3300 O   0  0  0  0  0  0  0  0  0  0  0  0
   -1.9000   56.8610    1.5110 C   0  0  0  0  0  0  0  0  0  0  0  0
   -2.0010   56.3820    0.0790 C   0  0  0  0  0  0  0  0  0  0  0  0
   -1.5750   55.1080   -0.2810 C   0  0  0  0  0  0  0  0  0  0  0  0
   -2.4880   57.2170   -0.9210 C   0  0  0  0  0  0  0  0  0  0  0  0
   -1.6520   54.6720   -1.5900 C   0  0  0  0  0  0  0  0  0  0  0  0
   -2.5670   56.7890   -2.2370 C   0  0  0  0  0  0  0  0  0  0  0  0
   -2.1460   55.5150   -2.5620 C   0  0  0  0  0  0  0  0  0  0  0  0
   -2.2150   55.0780   -3.8630 O   0  0  0  0  0  0  0  0  0  0  0  0
   -2.5840   57.2920    4.6500 N   0  0  0  0  0  0  0  0  0  0  0  0
   -2.0440   57.5320    5.9750 C   0  0  0  0  0  0  0  0  0  0  0  0
   -0.5330   57.6420    5.9830 C   0  0  0  0  0  0  0  0  0  0  0  0
    0.1430   56.9590    6.7590 O   0  0  0  0  0  0  0  0  0  0  0  0
    0.0070   58.4950    5.1160 N   0  0  0  0  0  0  0  0  0  0  0  0
    1.4520   58.6070    4.9670 C   0  0  2  0  0  0  0  0  0  0  0  0
    2.0960   59.0730    6.2680 C   0  0  0  0  0  0  0  0  0  0  0  0
    1.7680   60.1440    6.7880 O   0  0  0  0  0  0  0  0  0  0  0  0
    1.7920   59.5730    3.8310 C   0  0  0  0  0  0  0  0  0  0  0  0
    1.4360   59.0590    2.4600 C   0  0  0  0  0  0  0  0  0  0  0  0
    1.9620   57.8640    1.9910 C   0  0  0  0  0  0  0  0  0  0  0  0
    0.5980   59.7870    1.6300 C   0  0  0  0  0  0  0  0  0  0  0  0
    1.6470   57.3940    0.7260 C   0  0  0  0  0  0  0  0  0  0  0  0
    0.2780   59.3260    0.3620 C   0  0  0  0  0  0  0  0  0  0  0  0
    0.8060   58.1270   -0.0930 C   0  0  0  0  0  0  0  0  0  0  0  0
    3.0070   58.2580    6.7970 N   0  0  0  0  0  0  0  0  0  0  0  0
    3.7930   58.6190    7.9600 C   0  0  2  0  0  0  0  0  0  0  0  0
    5.2660   58.6990    7.5840 C   0  0  0  0  0  0  0  0  0  0  0  0
    5.7350   57.9130    6.7530 O   0  0  0  0  0  0  0  0  0  0  0  0
    3.6070   57.6040    9.1020 C   0  0  0  0  0  0  0  0  0  0  0  0
    2.1930   57.5500    9.6530 C   0  0  0  0  0  0  0  0  0  0  0  0
    2.0360   56.5400   10.7740 C   0  0  0  0  0  0  0  0  0  0  0  0
    2.9620   56.3050   11.5500 O   0  0  0  0  0  0  0  0  0  0  0  0
    0.8570   55.9330   10.8600 N   0  0  0  0  0  0  0  0  0  0  0  0
    7.7970   57.6630    9.0440 N   0  0  0  0  0  0  0  0  0  0  0  0
    8.5000   56.4300    9.3750 C   0  0  2  0  0  0  0  0  0  0  0  0
    8.3290   55.3490    8.3180 C   0  0  0  0  0  0  0  0  0  0  0  0
    9.0000   54.3140    8.4060 O   0  0  0  0  0  0  0  0  0  0  0  0
    8.0180   55.9030   10.7280 C   0  0  2  0  0  0  0  0  0  0  0  0
    6.5980   55.7070   10.6890 O   0  0  0  0  0  0  0  0  0  0  0  0
    8.3570   56.8920   11.8340 C   0  0  0  0  0  0  0  0  0  0  0  0
    7.4590   55.5630    7.3330 N   0  0  0  0  0  0  0  0  0  0  0  0
    7.2050   54.5560    6.3100 C   0  0  2  0  0  0  0  0  0  0  0  0
    8.4780   54.1860    5.5610 C   0  0  0  0  0  0  0  0  0  0  0  0
    9.3500   55.0270    5.3210 O   0  0  0  0  0  0  0  0  0  0  0  0
    6.1640   55.0640    5.3110 C   0  0  0  0  0  0  0  0  0  0  0  0
    4.7580   55.0470    5.8700 C   0  0  0  0  0  0  0  0  0  0  0  0
    4.5370   54.6780    7.0240 O   0  0  0  0  0  0  0  0  0  0  0  0
    3.7960   55.4560    5.0520 N   0  0  0  0  0  0  0  0  0  0  0  0
    8.5770   52.9110    5.1920 N   0  0  0  0  0  0  0  0  0  0  0  0
    9.5670   52.5110    4.2150 C   0  0  0  0  0  0  0  0  0  0  0  0
    9.3710   53.2390    2.9010 C   0  0  0  0  0  0  0  0  0  0  0  0
    8.2840   53.7280    2.5900 O   0  0  0  0  0  0  0  0  0  0  0  0
   10.4520   53.3140    2.1210 N   0  0  0  0  0  0  0  0  0  0  0  0
   10.4390   54.1200    0.9010 C   0  0  2  0  0  0  0  0  0  0  0  0
    9.3170   53.6890   -0.0350 C   0  0  0  0  0  0  0  0  0  0  0  0
    8.7070   54.5270   -0.7130 O   0  0  0  0  0  0  0  0  0  0  0  0
   11.8180   54.0590    0.2110 C   0  0  0  0  0  0  0  0  0  0  0  0
   12.1960   52.6200   -0.1310 C   0  0  0  0  0  0  0  0  0  0  0  0
   11.8320   54.9340   -1.0350 C   0  0  0  0  0  0  0  0  0  0  0  0
    9.0030   52.3920   -0.0690 N   0  0  0  0  0  0  0  0  0  0  0  0
    7.9420   51.9050   -0.9320 C   0  0  0  0  0  0  0  0  0  0  0  0
    6.5520   52.3360   -0.5140 C   0  0  0  0  0  0  0  0  0  0  0  0
    5.6420   52.3480   -1.3500 O   0  0  0  0  0  0  0  0  0  0  0  0
    6.3660   52.6870    0.7590 N   0  0  0  0  0  0  0  0  0  0  0  0
    5.0780   53.1400    1.2690 C   0  0  2  0  0  0  0  0  0  0  0  0
    5.0590   54.6390    1.5440 C   0  0  0  0  0  0  0  0  0  0  0  0
    4.1120   55.1330    2.1640 O   0  0  0  0  0  0  0  0  0  0  0  0
    4.7030   52.3600    2.5330 C   0  0  0  0  0  0  0  0  0  0  0  0
    4.2470   50.9360    2.2710 C   0  0  0  0  0  0  0  0  0  0  0  0
    5.1570   49.9480    1.9140 C   0  0  0  0  0  0  0  0  0  0  0  0
    2.9090   50.5790    2.3900 C   0  0  0  0  0  0  0  0  0  0  0  0
    4.7450   48.6460    1.6730 C   0  0  0  0  0  0  0  0  0  0  0  0
    2.4870   49.2780    2.1520 C   0  0  0  0  0  0  0  0  0  0  0  0
    3.4100   48.3160    1.7940 C   0  0  0  0  0  0  0  0  0  0  0  0
    3.0030   47.0190    1.5550 O   0  0  0  0  0  0  0  0  0  0  0  0
  2  1  1  6
  3  2  1  0
  4  3  2  0
  5  2  1  0
  6  5  1  0
  7  6  1  0
  8  7  1  0
  9  8  1  0
 10  9  1  0
 11  9  2  0
 13 12  1  1
 14 13  1  0
 15 14  2  0
 16 13  1  0
 17 16  1  0
 18 17  2  0
 19 17  1  0
 20 18  1  0
 21 19  2  0
 22 21  1  0
 22 20  2  0
 23 22  1  0
 25 24  1  1
 26 25  1  0
 27 26  2  0
 28 25  1  0
 29 28  1  0
 30 29  2  0
 31 29  1  0
 32 30  1  0
 33 31  2  0
 34 33  1  0
 34 32  2  0
 35 34  1  0
 37 36  1  6
 38 37  1  0
 39 38  2  0
 40 37  1  0
 41 40  1  0
 42 41  1  0
 43 42  2  0
 44 42  1  0
 45 38  1  0
 46 45  1  0
 47 46  1  0
 48 47  2  0
 46 49  1  1
 50 49  1  0
 51 47  1  0
 52 51  1  0
 53 52  1  0
 54 53  2  0
 52 55  1  6
 56 55  1  0
 57 56  2  0
 58 56  1  0
 59 57  1  0
 60 58  2  0
 61 60  1  0
 61 59  2  0
 62 61  1  0
 63 53  1  0
 64 63  1  0
 65 64  1  0
 66 65  2  0
 67 65  1  0
 68 67  1  0
 69 68  1  0
 70 69  2  0
 68 71  1  6
 72 71  1  0
 73 72  2  0
 74 72  1  0
 75 73  1  0
 76 74  2  0
 77 76  1  0
 77 75  2  0
 78 69  1  0
 79 78  1  0
 80 79  1  0
 81 80  2  0
 79 82  1  1
 83 82  1  0
 84 83  1  0
 85 84  2  0
 86 84  1  0
 88 87  1  6
 89 88  1  0
 90 89  2  0
 91 88  1  0
 92 91  1  0
 91 93  1  1
 94 89  1  0
 95 94  1  0
 96 95  1  0
 97 96  2  0
 95 98  1  6
 99 98  1  0
100 99  2  0
101 99  1  0
102 96  1  0
103102  1  0
104103  1  0
105104  2  0
106104  1  0
107106  1  1
108107  1  0
109108  2  0
110107  1  0
111110  1  0
112110  1  0
113108  1  0
114113  1  0
115114  1  0
116115  2  0
117115  1  0
118117  1  0
119118  1  0
120119  2  0
118121  1  1
122121  1  0
123122  2  0
124122  1  0
125123  1  0
126124  2  0
127125  2  0
127126  1  0
128127  1  0
M  END
$$$$
