
     RDKit          3D

147148  0  0  0  0  0  0  0  0999 V2000
  170.7880  199.0030  142.2630 N   0  0  0  0  0  0  0  0  0  0  0  0
  171.2670  200.3740  142.5130 C   0  0  0  0  0  0  0  0  0  0  0  0
  171.6350  200.4990  143.9750 C   0  0  0  0  0  0  0  0  0  0  0  0
  172.7210  201.0260  144.2680 O   0  0  0  0  0  0  0  0  0  0  0  0
  169.0900  203.1460  149.1080 N   0  0  0  0  0  0  0  0  0  0  0  0
  169.6030  204.3550  149.7510 C   0  0  2  0  0  0  0  0  0  0  0  0
  168.5160  204.9930  150.6110 C   0  0  0  0  0  0  0  0  0  0  0  0
  168.1930  206.1720  150.4860 O   0  0  0  0  0  0  0  0  0  0  0  0
  170.1390  205.3350  148.7120 C   0  0  0  0  0  0  0  0  0  0  0  0
  171.1940  204.7390  147.8070 C   0  0  0  0  0  0  0  0  0  0  0  0
  172.5370  204.7750  148.1520 C   0  0  0  0  0  0  0  0  0  0  0  0
  170.8500  204.1920  146.5780 C   0  0  0  0  0  0  0  0  0  0  0  0
  173.5030  204.2400  147.3180 C   0  0  0  0  0  0  0  0  0  0  0  0
  171.8080  203.6550  145.7390 C   0  0  0  0  0  0  0  0  0  0  0  0
  173.1320  203.6850  146.1120 C   0  0  0  0  0  0  0  0  0  0  0  0
  174.0860  203.1530  145.2760 O   0  0  0  0  0  0  0  0  0  0  0  0
  167.9360  204.1700  151.4960 N   0  0  0  0  0  0  0  0  0  0  0  0
  166.7970  204.6480  152.3260 C   0  0  2  0  0  0  0  0  0  0  0  0
  167.0700  204.4170  153.8160 C   0  0  0  0  0  0  0  0  0  0  0  0
  166.1940  204.7750  154.6230 O   0  0  0  0  0  0  0  0  0  0  0  0
  165.4990  203.9310  151.9480 C   0  0  0  0  0  0  0  0  0  0  0  0
  164.9460  204.3570  150.6050 C   0  0  0  0  0  0  0  0  0  0  0  0
  164.0330  205.1770  150.5370 O   0  0  0  0  0  0  0  0  0  0  0  0
  165.4830  203.8010  149.5310 N   0  0  0  0  0  0  0  0  0  0  0  0
  168.9120  205.8430  156.7630 N   0  0  0  0  0  0  0  0  0  0  0  0
  169.7250  207.0200  157.1730 C   0  0  2  0  0  0  0  0  0  0  0  0
  170.6590  206.6030  158.3120 C   0  0  0  0  0  0  0  0  0  0  0  0
  170.1650  205.9420  159.2380 O   0  0  0  0  0  0  0  0  0  0  0  0
  168.7740  208.1200  157.6550 C   0  0  0  0  0  0  0  0  0  0  0  0
  168.0250  208.9350  156.5990 C   0  0  0  0  0  0  0  0  0  0  0  0
  168.9750  209.6060  155.6270 C   0  0  0  0  0  0  0  0  0  0  0  0
  166.9760  208.1150  155.8640 C   0  0  0  0  0  0  0  0  0  0  0  0
  171.9430  206.9790  158.2640 N   0  0  0  0  0  0  0  0  0  0  0  0
  172.8510  206.4910  159.3370 C   0  0  2  0  0  0  0  0  0  0  0  0
  173.3590  207.6050  160.2660 C   0  0  0  0  0  0  0  0  0  0  0  0
  173.9130  207.2350  161.3010 O   0  0  0  0  0  0  0  0  0  0  0  0
  173.8260  205.4200  158.8390 C   0  0  0  0  0  0  0  0  0  0  0  0
  175.0760  205.8650  158.1290 C   0  0  0  0  0  0  0  0  0  0  0  0
  175.1280  205.9070  156.7470 C   0  0  0  0  0  0  0  0  0  0  0  0
  176.2320  206.1590  158.8320 C   0  0  0  0  0  0  0  0  0  0  0  0
  176.2830  206.2760  156.0800 C   0  0  0  0  0  0  0  0  0  0  0  0
  177.3950  206.5330  158.1810 C   0  0  0  0  0  0  0  0  0  0  0  0
  177.4210  206.5900  156.8000 C   0  0  0  0  0  0  0  0  0  0  0  0
  178.5620  206.9610  156.1490 O   0  0  0  0  0  0  0  0  0  0  0  0
  175.6310  226.5230  156.5080 N   0  0  0  0  0  0  0  0  0  0  0  0
  176.6900  227.4080  156.0630 C   0  0  0  0  0  0  0  0  0  0  0  0
  178.0540  226.7680  155.9070 C   0  0  0  0  0  0  0  0  0  0  0  0
  178.1820  225.6750  155.3470 O   0  0  0  0  0  0  0  0  0  0  0  0
  179.0820  227.4730  156.3890 N   0  0  0  0  0  0  0  0  0  0  0  0
  180.4510  226.9660  156.3340 C   0  0  2  0  0  0  0  0  0  0  0  0
  180.6240  225.6740  157.1230 C   0  0  0  0  0  0  0  0  0  0  0  0
  181.1330  224.6830  156.5950 O   0  0  0  0  0  0  0  0  0  0  0  0
  181.4100  228.0420  156.8530 C   0  0  0  0  0  0  0  0  0  0  0  0
  182.7210  227.5020  157.3690 C   0  0  0  0  0  0  0  0  0  0  0  0
  183.6950  227.0260  156.5110 C   0  0  0  0  0  0  0  0  0  0  0  0
  182.9820  227.4970  158.7300 C   0  0  0  0  0  0  0  0  0  0  0  0
  184.8910  226.5410  157.0000 C   0  0  0  0  0  0  0  0  0  0  0  0
  184.1760  227.0080  159.2240 C   0  0  0  0  0  0  0  0  0  0  0  0
  185.1320  226.5310  158.3560 C   0  0  0  0  0  0  0  0  0  0  0  0
  178.0140  224.0400  158.9940 N   0  0  0  0  0  0  0  0  0  0  0  0
  176.6590  223.6930  159.4010 C   0  0  2  0  0  0  0  0  0  0  0  0
  176.1640  222.5600  158.5140 C   0  0  0  0  0  0  0  0  0  0  0  0
  176.1040  222.7060  157.2890 O   0  0  0  0  0  0  0  0  0  0  0  0
  175.7420  224.9160  159.3230 C   0  0  0  0  0  0  0  0  0  0  0  0
  176.5400  226.4420  159.9120 S   0  0  0  0  0  0  0  0  0  0  0  0
  175.8110  221.4340  159.1370 N   0  0  0  0  0  0  0  0  0  0  0  0
  175.4830  220.1960  158.4450 C   0  0  2  0  0  0  0  0  0  0  0  0
  174.0470  219.7690  158.7080 C   0  0  0  0  0  0  0  0  0  0  0  0
  173.5120  219.9700  159.7980 O   0  0  0  0  0  0  0  0  0  0  0  0
  176.3620  219.0590  158.9570 C   0  0  0  0  0  0  0  0  0  0  0  0
  177.8490  219.1860  158.7760 C   0  0  0  0  0  0  0  0  0  0  0  0
  178.4220  219.2140  157.5180 C   0  0  0  0  0  0  0  0  0  0  0  0
  178.6780  219.3250  159.8790 C   0  0  0  0  0  0  0  0  0  0  0  0
  179.7880  219.3200  157.3690 C   0  0  0  0  0  0  0  0  0  0  0  0
  180.0390  219.4300  159.7420 C   0  0  0  0  0  0  0  0  0  0  0  0
  180.5910  219.4380  158.4870 C   0  0  0  0  0  0  0  0  0  0  0  0
  181.9550  219.5420  158.3700 O   0  0  0  0  0  0  0  0  0  0  0  0
  173.4540  219.1160  157.7110 N   0  0  0  0  0  0  0  0  0  0  0  0
  172.2640  218.2980  157.8970 C   0  0  2  0  0  0  0  0  0  0  0  0
  172.7470  216.8650  158.0610 C   0  0  0  0  0  0  0  0  0  0  0  0
  173.3010  216.3080  157.1040 O   0  0  0  0  0  0  0  0  0  0  0  0
  171.3370  218.4660  156.6900 C   0  0  0  0  0  0  0  0  0  0  0  0
  170.0510  217.6820  156.7470 C   0  0  0  0  0  0  0  0  0  0  0  0
  169.9980  216.3340  156.4280 C   0  0  0  0  0  0  0  0  0  0  0  0
  168.8780  218.3190  157.1080 C   0  0  0  0  0  0  0  0  0  0  0  0
  168.8210  215.6500  156.4650 C   0  0  0  0  0  0  0  0  0  0  0  0
  167.6900  217.6320  157.1570 C   0  0  0  0  0  0  0  0  0  0  0  0
  167.6610  216.2920  156.8400 C   0  0  0  0  0  0  0  0  0  0  0  0
  171.8500  213.4600  158.4860 N   0  0  0  0  0  0  0  0  0  0  0  0
  171.3120  212.1230  158.2180 C   0  0  2  0  0  0  0  0  0  0  0  0
  172.2180  211.2820  157.3050 C   0  0  0  0  0  0  0  0  0  0  0  0
  172.7360  210.2590  157.7580 O   0  0  0  0  0  0  0  0  0  0  0  0
  169.8780  212.2350  157.7100 C   0  0  0  0  0  0  0  0  0  0  0  0
  168.8490  212.7350  158.7290 C   0  0  0  0  0  0  0  0  0  0  0  0
  167.4690  212.9280  158.1190 C   0  0  0  0  0  0  0  0  0  0  0  0
  168.7610  211.7720  159.8950 C   0  0  0  0  0  0  0  0  0  0  0  0
  172.4170  211.6800  156.0470 N   0  0  0  0  0  0  0  0  0  0  0  0
  173.3590  211.0390  155.1090 C   0  0  2  0  0  0  0  0  0  0  0  0
  173.2360  209.5030  155.0140 C   0  0  0  0  0  0  0  0  0  0  0  0
  174.0000  208.7470  155.6020 O   0  0  0  0  0  0  0  0  0  0  0  0
  174.7640  211.4970  155.5440 C   0  0  0  0  0  0  0  0  0  0  0  0
  176.0060  211.0500  154.7770 C   0  0  0  0  0  0  0  0  0  0  0  0
  176.7100  209.8320  155.3400 C   0  0  0  0  0  0  0  0  0  0  0  0
  176.7080  209.6040  156.5440 O   0  0  0  0  0  0  0  0  0  0  0  0
  177.3180  209.0420  154.4640 N   0  0  0  0  0  0  0  0  0  0  0  0
  172.1520  209.0630  154.3600 N   0  0  0  0  0  0  0  0  0  0  0  0
  171.7300  207.6580  154.2990 C   0  0  2  0  0  0  0  0  0  0  0  0
  172.7850  206.6840  153.7890 C   0  0  0  0  0  0  0  0  0  0  0  0
  173.7320  207.0860  153.1130 O   0  0  0  0  0  0  0  0  0  0  0  0
  170.5120  207.4810  153.3900 C   0  0  0  0  0  0  0  0  0  0  0  0
  170.8510  207.6950  152.0340 O   0  0  0  0  0  0  0  0  0  0  0  0
  172.6180  205.4050  154.1250 N   0  0  0  0  0  0  0  0  0  0  0  0
  173.5200  204.3240  153.7380 C   0  0  2  0  0  0  0  0  0  0  0  0
  173.6410  204.1980  152.2160 C   0  0  0  0  0  0  0  0  0  0  0  0
  172.8360  204.7340  151.4500 O   0  0  0  0  0  0  0  0  0  0  0  0
  173.0220  202.9920  154.2880 C   0  0  0  0  0  0  0  0  0  0  0  0
  173.6450  202.5590  155.5870 C   0  0  0  0  0  0  0  0  0  0  0  0
  175.0130  202.3690  155.6990 C   0  0  0  0  0  0  0  0  0  0  0  0
  172.8510  202.2840  156.6890 C   0  0  0  0  0  0  0  0  0  0  0  0
  175.5720  201.9560  156.8870 C   0  0  0  0  0  0  0  0  0  0  0  0
  173.3990  201.8670  157.8760 C   0  0  0  0  0  0  0  0  0  0  0  0
  174.7580  201.7030  157.9700 C   0  0  0  0  0  0  0  0  0  0  0  0
  175.2990  201.2900  159.1600 O   0  0  0  0  0  0  0  0  0  0  0  0
  174.6600  203.4560  151.7800 N   0  0  0  0  0  0  0  0  0  0  0  0
  174.7060  203.0030  150.3990 C   0  0  0  0  0  0  0  0  0  0  0  0
  175.1750  201.5650  150.3020 C   0  0  0  0  0  0  0  0  0  0  0  0
  176.2870  201.2460  150.7310 O   0  0  0  0  0  0  0  0  0  0  0  0
  174.3420  200.6800  149.7470 N   0  0  0  0  0  0  0  0  0  0  0  0
  174.6770  199.2650  149.6160 C   0  0  2  0  0  0  0  0  0  0  0  0
  174.7670  198.8820  148.1440 C   0  0  0  0  0  0  0  0  0  0  0  0
  174.1430  199.5130  147.2860 O   0  0  0  0  0  0  0  0  0  0  0  0
  173.6350  198.3270  150.2850 C   0  0  0  0  0  0  0  0  0  0  0  0
  173.3910  198.5720  151.7650 C   0  0  0  0  0  0  0  0  0  0  0  0
  174.2160  199.3760  152.5310 C   0  0  0  0  0  0  0  0  0  0  0  0
  172.3280  197.9480  152.3940 C   0  0  0  0  0  0  0  0  0  0  0  0
  173.9520  199.5980  153.8570 C   0  0  0  0  0  0  0  0  0  0  0  0
  172.0730  198.1520  153.7280 C   0  0  0  0  0  0  0  0  0  0  0  0
  172.8880  198.9730  154.4640 C   0  0  0  0  0  0  0  0  0  0  0  0
  175.4680  197.7780  147.8750 N   0  0  0  0  0  0  0  0  0  0  0  0
  175.5330  197.2380  146.4920 C   0  0  2  0  0  0  0  0  0  0  0  0
  175.3880  195.7180  146.6180 C   0  0  0  0  0  0  0  0  0  0  0  0
  175.9350  195.1650  147.5900 O   0  0  0  0  0  0  0  0  0  0  0  0
  176.8560  197.6250  145.8280 C   0  0  0  0  0  0  0  0  0  0  0  0
  177.9410  198.0410  146.8110 C   0  0  0  0  0  0  0  0  0  0  0  0
  178.1020  199.5400  146.8850 C   0  0  0  0  0  0  0  0  0  0  0  0
  177.8650  200.1600  147.9190 O   0  0  0  0  0  0  0  0  0  0  0  0
  178.5070  200.1370  145.7760 N   0  0  0  0  0  0  0  0  0  0  0  0
  2  1  1  0
  3  2  1  0
  4  3  2  0
  6  5  1  6
  7  6  1  0
  8  7  2  0
  9  6  1  0
 10  9  1  0
 11 10  2  0
 12 10  1  0
 13 11  1  0
 14 12  2  0
 15 14  1  0
 15 13  2  0
 16 15  1  0
 17  7  1  0
 18 17  1  0
 19 18  1  0
 20 19  2  0
 18 21  1  6
 22 21  1  0
 23 22  2  0
 24 22  1  0
 26 25  1  1
 27 26  1  0
 28 27  2  0
 29 26  1  0
 30 29  1  0
 31 30  1  0
 32 30  1  0
 33 27  1  0
 34 33  1  0
 35 34  1  0
 36 35  2  0
 34 37  1  6
 38 37  1  0
 39 38  2  0
 40 38  1  0
 41 39  1  0
 42 40  2  0
 43 41  2  0
 43 42  1  0
 44 43  1  0
 46 45  1  0
 47 46  1  0
 48 47  2  0
 49 47  1  0
 50 49  1  0
 51 50  1  0
 52 51  2  0
 50 53  1  1
 54 53  1  0
 55 54  2  0
 56 54  1  0
 57 55  1  0
 58 56  2  0
 59 57  2  0
 59 58  1  0
 61 60  1  6
 62 61  1  0
 63 62  2  0
 64 61  1  0
 65 64  1  0
 66 62  1  0
 67 66  1  0
 68 67  1  0
 69 68  2  0
 67 70  1  1
 71 70  1  0
 72 71  2  0
 73 71  1  0
 74 72  1  0
 75 73  2  0
 76 74  2  0
 76 75  1  0
 77 76  1  0
 78 68  1  0
 79 78  1  0
 80 79  1  0
 81 80  2  0
 79 82  1  6
 83 82  1  0
 84 83  2  0
 85 83  1  0
 86 84  1  0
 87 85  2  0
 88 87  1  0
 88 86  2  0
 90 89  1  6
 91 90  1  0
 92 91  2  0
 93 90  1  0
 94 93  1  0
 95 94  1  0
 96 94  1  0
 97 91  1  0
 98 97  1  0
 99 98  1  0
100 99  2  0
 98101  1  1
102101  1  0
103102  1  0
104103  2  0
105103  1  0
106 99  1  0
107106  1  0
108107  1  0
109108  2  0
107110  1  6
111110  1  0
112108  1  0
113112  1  0
114113  1  0
115114  2  0
113116  1  6
117116  1  0
118117  2  0
119117  1  0
120118  1  0
121119  2  0
122121  1  0
122120  2  0
123122  1  0
124114  1  0
125124  1  0
126125  1  0
127126  2  0
128126  1  0
129128  1  0
130129  1  0
131130  2  0
129132  1  1
133132  1  0
134133  2  0
135133  1  0
136134  1  0
137135  2  0
138137  1  0
138136  2  0
139130  1  0
140139  1  0
141140  1  0
142141  2  0
140143  1  1
144143  1  0
145144  1  0
146145  2  0
147145  1  0
M  END
$$$$
