
     RDKit          3D

 74 71  0  0  0  0  0  0  0  0999 V2000
  198.0320  194.9130  168.9020 N   0  0  0  0  0  0  0  0  0  0  0  0
  199.4100  195.3680  168.9770 C   0  0  2  0  0  0  0  0  0  0  0  0
  199.6310  196.4450  167.9080 C   0  0  0  0  0  0  0  0  0  0  0  0
  199.5880  196.1540  166.7120 O   0  0  0  0  0  0  0  0  0  0  0  0
  200.4200  194.2190  168.8240 C   0  0  0  0  0  0  0  0  0  0  0  0
  201.8120  194.6260  169.3460 C   0  0  0  0  0  0  0  0  0  0  0  0
  202.3930  195.6240  168.8630 O   0  0  0  0  0  0  0  0  0  0  0  0
  202.3240  193.8880  170.3300 N   0  0  0  0  0  0  0  0  0  0  0  0
  202.2680  197.9280  166.8170 N   0  0  0  0  0  0  0  0  0  0  0  0
  203.4450  197.9330  165.9690 C   0  0  2  0  0  0  0  0  0  0  0  0
  203.3570  196.8440  164.9180 C   0  0  0  0  0  0  0  0  0  0  0  0
  204.2010  196.7730  164.0260 O   0  0  0  0  0  0  0  0  0  0  0  0
  204.7330  197.7500  166.7700 C   0  0  2  0  0  0  0  0  0  0  0  0
  204.7630  196.4590  167.3510 O   0  0  0  0  0  0  0  0  0  0  0  0
  204.7530  198.7680  167.8740 C   0  0  0  0  0  0  0  0  0  0  0  0
  202.3690  195.9650  165.0410 N   0  0  0  0  0  0  0  0  0  0  0  0
  202.2080  194.8390  164.1390 C   0  0  2  0  0  0  0  0  0  0  0  0
  201.2220  195.2300  163.0520 C   0  0  0  0  0  0  0  0  0  0  0  0
  200.0230  195.3450  163.3030 O   0  0  0  0  0  0  0  0  0  0  0  0
  201.7510  193.6030  164.8990 C   0  0  0  0  0  0  0  0  0  0  0  0
  201.6720  192.3780  164.0350 C   0  0  0  0  0  0  0  0  0  0  0  0
  201.7020  192.5110  162.8220 O   0  0  0  0  0  0  0  0  0  0  0  0
  201.5990  191.2910  164.5730 O   0  0  0  0  0  0  0  0  0  0  0  0
  201.6990  195.4550  161.8390 N   0  0  0  0  0  0  0  0  0  0  0  0
  200.8170  195.9940  160.8170 C   0  0  2  0  0  0  0  0  0  0  0  0
  199.8520  194.9640  160.2650 C   0  0  0  0  0  0  0  0  0  0  0  0
  199.0070  195.2810  159.4350 O   0  0  0  0  0  0  0  0  0  0  0  0
  201.6310  196.6110  159.7020 C   0  0  0  0  0  0  0  0  0  0  0  0
  202.4050  195.6280  158.9180 C   0  0  0  0  0  0  0  0  0  0  0  0
  201.9740  194.4900  158.6970 O   0  0  0  0  0  0  0  0  0  0  0  0
  203.5710  196.0280  158.5230 N   0  0  0  0  0  0  0  0  0  0  0  0
  197.6700  199.7790  159.0420 N   0  0  0  0  0  0  0  0  0  0  0  0
  198.8400  200.5690  158.7000 C   0  0  2  0  0  0  0  0  0  0  0  0
  199.5450  200.0840  157.4890 C   0  0  0  0  0  0  0  0  0  0  0  0
  199.5680  198.8880  157.2280 O   0  0  0  0  0  0  0  0  0  0  0  0
  199.8540  200.5980  159.8100 C   0  0  0  0  0  0  0  0  0  0  0  0
  199.4530  201.3810  160.9420 C   0  0  0  0  0  0  0  0  0  0  0  0
  200.4170  201.3610  162.0380 C   0  0  0  0  0  0  0  0  0  0  0  0
  201.7550  201.7610  161.6290 N   0  0  0  0  0  0  0  0  0  0  0  0
  202.8550  200.9720  161.6030 C   0  0  0  0  0  0  0  0  0  0  0  0
  202.8270  199.7190  162.0090 N   0  0  0  0  0  0  0  0  0  0  0  0
  203.9880  201.4780  161.1560 N   0  0  0  0  0  0  0  0  0  0  0  0
  200.1240  201.0280  156.7890 N   0  0  0  0  0  0  0  0  0  0  0  0
  200.9760  200.8390  155.6450 C   0  0  2  0  0  0  0  0  0  0  0  0
  202.3280  200.4970  156.2220 C   0  0  0  0  0  0  0  0  0  0  0  0
  202.8490  201.2610  157.0280 O   0  0  0  0  0  0  0  0  0  0  0  0
  201.0600  202.1320  154.8490 C   0  0  0  0  0  0  0  0  0  0  0  0
  201.7660  202.0340  153.4850 C   0  0  0  0  0  0  0  0  0  0  0  0
  202.2370  200.9830  153.1650 O   0  0  0  0  0  0  0  0  0  0  0  0
  201.7210  202.9910  152.7270 O   0  0  0  0  0  0  0  0  0  0  0  0
  202.8370  199.3260  155.9420 N   0  0  0  0  0  0  0  0  0  0  0  0
  204.0810  198.9050  156.5570 C   0  0  0  0  0  0  0  0  0  0  0  0
  205.2870  199.4770  155.8380 C   0  0  0  0  0  0  0  0  0  0  0  0
  205.1720  200.3890  155.0230 O   0  0  0  0  0  0  0  0  0  0  0  0
  206.4520  198.9720  156.1770 N   0  0  0  0  0  0  0  0  0  0  0  0
  207.6940  199.4240  155.5940 C   0  0  0  0  0  0  0  0  0  0  0  0
  208.3900  200.4580  156.4400 C   0  0  0  0  0  0  0  0  0  0  0  0
  207.8710  200.9180  157.4550 O   0  0  0  0  0  0  0  0  0  0  0  0
  209.5990  200.8070  156.0440 N   0  0  0  0  0  0  0  0  0  0  0  0
  210.3240  201.8120  156.7660 C   0  0  2  0  0  0  0  0  0  0  0  0
  209.7150  203.1420  156.4520 C   0  0  0  0  0  0  0  0  0  0  0  0
  209.4740  203.4650  155.2910 O   0  0  0  0  0  0  0  0  0  0  0  0
  211.7980  201.8160  156.3730 C   0  0  0  0  0  0  0  0  0  0  0  0
  212.6590  202.8890  157.0510 C   0  0  0  0  0  0  0  0  0  0  0  0
  212.9080  202.6210  158.5430 C   0  0  0  0  0  0  0  0  0  0  0  0
  213.7440  203.7510  159.1760 C   0  0  0  0  0  0  0  0  0  0  0  0
  212.9160  204.9810  159.5140 N   0  0  0  0  0  0  0  0  0  0  0  0
  209.4990  203.9440  157.4660 N   0  0  0  0  0  0  0  0  0  0  0  0
  209.0260  205.2780  157.2140 C   0  0  2  0  0  0  0  0  0  0  0  0
  210.2170  206.1130  156.7650 C   0  0  0  0  0  0  0  0  0  0  0  0
  211.2710  206.1240  157.4160 O   0  0  0  0  0  0  0  0  0  0  0  0
  208.3430  205.8570  158.4660 C   0  0  2  0  0  0  0  0  0  0  0  0
  207.2070  205.0300  158.7920 O   0  0  0  0  0  0  0  0  0  0  0  0
  207.8890  207.2580  158.2060 C   0  0  0  0  0  0  0  0  0  0  0  0
  2  1  1  6
  3  2  1  0
  4  3  2  0
  5  2  1  0
  6  5  1  0
  7  6  2  0
  8  6  1  0
 10  9  1  1
 11 10  1  0
 12 11  2  0
 13 10  1  0
 14 13  1  0
 13 15  1  1
 16 11  1  0
 17 16  1  0
 18 17  1  0
 19 18  2  0
 17 20  1  1
 21 20  1  0
 22 21  2  0
 23 21  1  0
 24 18  1  0
 25 24  1  0
 26 25  1  0
 27 26  2  0
 25 28  1  6
 29 28  1  0
 30 29  2  0
 31 29  1  0
 33 32  1  1
 34 33  1  0
 35 34  2  0
 36 33  1  0
 37 36  1  0
 38 37  1  0
 39 38  1  0
 40 39  1  0
 41 40  1  0
 42 40  2  0
 43 34  1  0
 44 43  1  0
 45 44  1  0
 46 45  2  0
 44 47  1  1
 48 47  1  0
 49 48  2  0
 50 48  1  0
 51 45  1  0
 52 51  1  0
 53 52  1  0
 54 53  2  0
 55 53  1  0
 56 55  1  0
 57 56  1  0
 58 57  2  0
 59 57  1  0
 60 59  1  0
 61 60  1  0
 62 61  2  0
 60 63  1  6
 64 63  1  0
 65 64  1  0
 66 65  1  0
 67 66  1  0
 68 61  1  0
 69 68  1  1
 70 69  1  0
 71 70  2  0
 72 69  1  0
 73 72  1  0
 72 74  1  6
M  END
$$$$
