
     RDKit          3D

108101  0  0  0  0  0  0  0  0999 V2000
  136.8770  197.2240  168.4480 N   0  0  0  0  0  0  0  0  0  0  0  0
  137.9500  196.4580  167.8690 C   0  0  2  0  0  0  0  0  0  0  0  0
  138.2230  195.1850  168.6460 C   0  0  0  0  0  0  0  0  0  0  0  0
  139.0980  194.4020  168.2660 O   0  0  0  0  0  0  0  0  0  0  0  0
  139.1960  197.3080  167.7690 C   0  0  0  0  0  0  0  0  0  0  0  0
  137.5220  194.9700  169.7470 N   0  0  0  0  0  0  0  0  0  0  0  0
  137.8010  193.7900  170.5380 C   0  0  2  0  0  0  0  0  0  0  0  0
  136.8070  192.6870  170.2720 C   0  0  0  0  0  0  0  0  0  0  0  0
  135.6930  192.9260  169.8100 O   0  0  0  0  0  0  0  0  0  0  0  0
  137.8660  194.1540  172.0060 C   0  0  0  0  0  0  0  0  0  0  0  0
  138.9190  195.2260  172.3210 C   0  0  0  0  0  0  0  0  0  0  0  0
  140.3470  194.7480  172.0450 C   0  0  0  0  0  0  0  0  0  0  0  0
  141.3980  195.7360  172.5620 C   0  0  0  0  0  0  0  0  0  0  0  0
  141.4960  196.9960  171.7470 N   0  0  0  0  0  0  0  0  0  0  0  0
  137.2260  191.4640  170.5570 N   0  0  0  0  0  0  0  0  0  0  0  0
  136.3920  190.2880  170.3880 C   0  0  2  0  0  0  0  0  0  0  0  0
  135.4050  190.1290  171.5240 C   0  0  0  0  0  0  0  0  0  0  0  0
  135.7520  190.3100  172.6890 O   0  0  0  0  0  0  0  0  0  0  0  0
  137.2590  189.0040  170.3190 C   0  0  2  0  0  0  0  0  0  0  0  0
  138.1820  189.0870  169.2210 O   0  0  0  0  0  0  0  0  0  0  0  0
  136.3660  187.7480  170.1060 C   0  0  0  0  0  0  0  0  0  0  0  0
  130.5690  189.1860  157.4970 N   0  0  0  0  0  0  0  0  0  0  0  0
  131.7960  189.9540  157.2490 C   0  0  2  0  0  0  0  0  0  0  0  0
  131.9820  190.3850  155.8150 C   0  0  0  0  0  0  0  0  0  0  0  0
  131.6680  189.6570  154.8730 O   0  0  0  0  0  0  0  0  0  0  0  0
  133.0640  189.2230  157.6050 C   0  0  0  0  0  0  0  0  0  0  0  0
  134.1400  190.0560  157.1980 O   0  0  0  0  0  0  0  0  0  0  0  0
  132.5230  191.5910  155.6610 N   0  0  0  0  0  0  0  0  0  0  0  0
  132.8270  192.2010  154.3750 C   0  0  2  0  0  0  0  0  0  0  0  0
  134.1910  191.7840  153.8370 C   0  0  0  0  0  0  0  0  0  0  0  0
  134.5440  192.1010  152.6980 O   0  0  0  0  0  0  0  0  0  0  0  0
  132.8190  193.6970  154.5060 C   0  0  0  0  0  0  0  0  0  0  0  0
  133.9020  194.0990  155.2750 O   0  0  0  0  0  0  0  0  0  0  0  0
  134.9770  191.1030  154.6600 N   0  0  0  0  0  0  0  0  0  0  0  0
  136.3170  190.7220  154.2520 C   0  0  0  0  0  0  0  0  0  0  0  0
  137.1320  189.9610  155.2960 C   0  0  0  0  0  0  0  0  0  0  0  0
  136.6720  189.6370  156.4050 O   0  0  0  0  0  0  0  0  0  0  0  0
  138.3660  189.6560  154.8990 N   0  0  0  0  0  0  0  0  0  0  0  0
  139.3140  188.8840  155.6940 C   0  0  0  0  0  0  0  0  0  0  0  0
  139.7110  187.6580  154.8990 C   0  0  0  0  0  0  0  0  0  0  0  0
  139.1140  187.3740  153.8600 O   0  0  0  0  0  0  0  0  0  0  0  0
  140.7310  186.9410  155.3490 N   0  0  0  0  0  0  0  0  0  0  0  0
  141.1520  185.7570  154.6030 C   0  0  2  0  0  0  0  0  0  0  0  0
  139.9540  184.7910  154.5740 C   0  0  0  0  0  0  0  0  0  0  0  0
  139.1460  184.8140  155.5010 O   0  0  0  0  0  0  0  0  0  0  0  0
  142.3450  185.0740  155.2850 C   0  0  0  0  0  0  0  0  0  0  0  0
  143.6590  185.8670  155.2670 C   0  0  0  0  0  0  0  0  0  0  0  0
  143.7960  186.8330  154.5580 O   0  0  0  0  0  0  0  0  0  0  0  0
  144.5250  185.5070  156.0390 O   0  0  0  0  0  0  0  0  0  0  0  0
  138.8770  183.0910  157.6900 N   0  0  0  0  0  0  0  0  0  0  0  0
  138.3170  183.9930  158.6670 C   0  0  2  0  0  0  0  0  0  0  0  0
  136.8470  184.2530  158.3670 C   0  0  0  0  0  0  0  0  0  0  0  0
  136.0170  184.2470  159.2830 O   0  0  0  0  0  0  0  0  0  0  0  0
  139.0940  185.2970  158.6340 C   0  0  2  0  0  0  0  0  0  0  0  0
  140.6100  184.9630  158.8110 C   0  0  0  0  0  0  0  0  0  0  0  0
  138.5790  186.2780  159.7050 C   0  0  0  0  0  0  0  0  0  0  0  0
  141.0390  184.2690  160.0450 C   0  0  0  0  0  0  0  0  0  0  0  0
  149.7190  180.4950  160.3460 N   0  0  0  0  0  0  0  0  0  0  0  0
  150.4520  181.3090  159.3860 C   0  0  2  0  0  0  0  0  0  0  0  0
  151.9550  181.1260  159.4340 C   0  0  0  0  0  0  0  0  0  0  0  0
  152.6950  182.1100  159.4930 O   0  0  0  0  0  0  0  0  0  0  0  0
  150.1460  182.7760  159.6520 C   0  0  0  0  0  0  0  0  0  0  0  0
  148.7090  183.1030  159.5400 C   0  0  0  0  0  0  0  0  0  0  0  0
  148.4270  184.4970  159.9370 C   0  0  0  0  0  0  0  0  0  0  0  0
  149.3060  185.2470  160.3770 O   0  0  0  0  0  0  0  0  0  0  0  0
  147.1850  184.8720  159.7980 N   0  0  0  0  0  0  0  0  0  0  0  0
  132.0380  190.2040  166.7050 N   0  0  0  0  0  0  0  0  0  0  0  0
  132.5910  191.5360  166.8000 C   0  0  2  0  0  0  0  0  0  0  0  0
  131.4580  192.5200  166.6210 C   0  0  0  0  0  0  0  0  0  0  0  0
  130.3010  192.1180  166.4480 O   0  0  0  0  0  0  0  0  0  0  0  0
  133.7300  191.7950  165.8190 C   0  0  2  0  0  0  0  0  0  0  0  0
  134.3380  193.0360  166.1940 O   0  0  0  0  0  0  0  0  0  0  0  0
  133.2250  191.8480  164.3780 C   0  0  0  0  0  0  0  0  0  0  0  0
  136.3580  186.6180  165.1680 N   0  0  0  0  0  0  0  0  0  0  0  0
  137.1990  185.4570  165.3550 C   0  0  0  0  0  0  0  0  0  0  0  0
  138.3800  185.3670  164.4280 C   0  0  0  0  0  0  0  0  0  0  0  0
  138.8940  186.3710  163.9310 O   0  0  0  0  0  0  0  0  0  0  0  0
  138.8930  184.1500  164.3060 N   0  0  0  0  0  0  0  0  0  0  0  0
  140.1030  183.8810  163.5370 C   0  0  0  0  0  0  0  0  0  0  0  0
  141.3900  183.8250  164.3490 C   0  0  0  0  0  0  0  0  0  0  0  0
  142.3970  183.2780  163.8980 O   0  0  0  0  0  0  0  0  0  0  0  0
  141.3680  184.3660  165.5500 N   0  0  0  0  0  0  0  0  0  0  0  0
  142.5340  184.3310  166.4130 C   0  0  2  0  0  0  0  0  0  0  0  0
  142.2960  183.1960  167.3680 C   0  0  0  0  0  0  0  0  0  0  0  0
  141.4110  183.2690  168.2150 O   0  0  0  0  0  0  0  0  0  0  0  0
  142.7920  185.6540  167.1350 C   0  0  0  0  0  0  0  0  0  0  0  0
  144.1310  185.6650  167.9980 C   0  0  0  0  0  0  0  0  0  0  0  0
  144.5700  184.6200  168.5120 O   0  0  0  0  0  0  0  0  0  0  0  0
  144.7220  186.7320  168.0910 O   0  0  0  0  0  0  0  0  0  0  0  0
  143.5860  182.1830  169.9370 N   0  0  0  0  0  0  0  0  0  0  0  0
  143.6990  182.3960  171.3540 C   0  0  2  0  0  0  0  0  0  0  0  0
  142.3800  182.8080  171.9600 C   0  0  0  0  0  0  0  0  0  0  0  0
  142.1830  182.6060  173.1550 O   0  0  0  0  0  0  0  0  0  0  0  0
  144.7640  183.4040  171.6660 C   0  0  0  0  0  0  0  0  0  0  0  0
  146.1550  182.9160  171.3470 C   0  0  0  0  0  0  0  0  0  0  0  0
  147.1320  183.9460  171.5820 C   0  0  0  0  0  0  0  0  0  0  0  0
  146.9240  185.0420  170.6730 N   0  0  0  0  0  0  0  0  0  0  0  0
  147.5560  186.2240  170.7240 C   0  0  0  0  0  0  0  0  0  0  0  0
  148.4680  186.4810  171.6630 N   0  0  0  0  0  0  0  0  0  0  0  0
  147.2440  187.1440  169.8180 N   0  0  0  0  0  0  0  0  0  0  0  0
  141.4490  183.3160  171.1550 N   0  0  0  0  0  0  0  0  0  0  0  0
  140.1650  183.7190  171.6840 C   0  0  2  0  0  0  0  0  0  0  0  0
  139.3290  182.5120  172.0380 C   0  0  0  0  0  0  0  0  0  0  0  0
  138.3790  182.6270  172.8090 O   0  0  0  0  0  0  0  0  0  0  0  0
  139.4100  184.6270  170.7190 C   0  0  0  0  0  0  0  0  0  0  0  0
  139.9420  186.0790  170.6470 C   0  0  0  0  0  0  0  0  0  0  0  0
  140.6060  186.5210  171.5650 O   0  0  0  0  0  0  0  0  0  0  0  0
  139.6890  186.7280  169.6440 O   0  0  0  0  0  0  0  0  0  0  0  0
  2  1  1  0
  3  2  1  0
  4  3  2  0
  2  5  1  1
  6  3  1  0
  7  6  1  0
  8  7  1  0
  9  8  2  0
  7 10  1  1
 11 10  1  0
 12 11  1  0
 13 12  1  0
 14 13  1  0
 15  8  1  0
 16 15  1  1
 17 16  1  0
 18 17  2  0
 19 16  1  0
 20 19  1  0
 19 21  1  6
 23 22  1  6
 24 23  1  0
 25 24  2  0
 26 23  1  0
 27 26  1  0
 28 24  1  0
 29 28  1  0
 30 29  1  0
 31 30  2  0
 29 32  1  1
 33 32  1  0
 34 30  1  0
 35 34  1  0
 36 35  1  0
 37 36  2  0
 38 36  1  0
 39 38  1  0
 40 39  1  0
 41 40  2  0
 42 40  1  0
 43 42  1  0
 44 43  1  0
 45 44  2  0
 43 46  1  1
 47 46  1  0
 48 47  2  0
 49 47  1  0
 51 50  1  6
 52 51  1  0
 53 52  2  0
 54 51  1  0
 55 54  1  0
 54 56  1  1
 57 55  1  0
 59 58  1  1
 60 59  1  0
 61 60  2  0
 62 59  1  0
 63 62  1  0
 64 63  1  0
 65 64  2  0
 66 64  1  0
 68 67  1  6
 69 68  1  0
 70 69  2  0
 71 68  1  0
 72 71  1  0
 71 73  1  6
 75 74  1  0
 76 75  1  0
 77 76  2  0
 78 76  1  0
 79 78  1  0
 80 79  1  0
 81 80  2  0
 82 80  1  0
 83 82  1  0
 84 83  1  0
 85 84  2  0
 83 86  1  1
 87 86  1  0
 88 87  2  0
 89 87  1  0
 91 90  1  6
 92 91  1  0
 93 92  2  0
 94 91  1  0
 95 94  1  0
 96 95  1  0
 97 96  1  0
 98 97  1  0
 99 98  1  0
100 98  2  0
101 92  1  0
102101  1  0
103102  1  0
104103  2  0
102105  1  6
106105  1  0
107106  2  0
108106  1  0
M  END
$$$$
