
     RDKit          3D

145144  0  0  0  0  0  0  0  0999 V2000
   15.1730  -19.3800  -20.8990 N   0  0  0  0  0  0  0  0  0  0  0  0
   14.5930  -18.1540  -21.4500 C   0  0  2  0  0  0  0  0  0  0  0  0
   13.5640  -17.5460  -20.5040 C   0  0  0  0  0  0  0  0  0  0  0  0
   13.4300  -16.3190  -20.4340 O   0  0  0  0  0  0  0  0  0  0  0  0
   13.9570  -18.4440  -22.8110 C   0  0  0  0  0  0  0  0  0  0  0  0
   14.9830  -18.9090  -23.8650 C   0  0  0  0  0  0  0  0  0  0  0  0
   14.3140  -19.1360  -25.1950 C   0  0  0  0  0  0  0  0  0  0  0  0
   15.3590  -19.3780  -26.2850 C   0  0  0  0  0  0  0  0  0  0  0  0
   15.8890  -20.7740  -26.3720 N   0  0  0  0  0  0  0  0  0  0  0  0
   14.7240  -14.1330  -18.8810 N   0  0  0  0  0  0  0  0  0  0  0  0
   14.1930  -12.9600  -19.5640 C   0  0  2  0  0  0  0  0  0  0  0  0
   12.7200  -12.6900  -19.3110 C   0  0  0  0  0  0  0  0  0  0  0  0
   12.1920  -11.7370  -19.9090 O   0  0  0  0  0  0  0  0  0  0  0  0
   14.4260  -13.0680  -21.0830 C   0  0  0  0  0  0  0  0  0  0  0  0
   15.8630  -13.3980  -21.4150 C   0  0  0  0  0  0  0  0  0  0  0  0
   16.9140  -12.7230  -20.7960 C   0  0  0  0  0  0  0  0  0  0  0  0
   16.1700  -14.4060  -22.3140 C   0  0  0  0  0  0  0  0  0  0  0  0
   18.2430  -13.0330  -21.0920 C   0  0  0  0  0  0  0  0  0  0  0  0
   17.4910  -14.7320  -22.6010 C   0  0  0  0  0  0  0  0  0  0  0  0
   18.5180  -14.0420  -21.9880 C   0  0  0  0  0  0  0  0  0  0  0  0
   19.8150  -14.3700  -22.2800 O   0  0  0  0  0  0  0  0  0  0  0  0
    9.0970  -13.1920  -23.8220 N   0  0  0  0  0  0  0  0  0  0  0  0
   10.2360  -12.4340  -24.3010 C   0  0  2  0  0  0  0  0  0  0  0  0
   11.3370  -13.4030  -24.7150 C   0  0  0  0  0  0  0  0  0  0  0  0
   11.8290  -14.1860  -23.8920 O   0  0  0  0  0  0  0  0  0  0  0  0
   10.7340  -11.4640  -23.2350 C   0  0  0  0  0  0  0  0  0  0  0  0
   11.8790  -10.5460  -23.7440 C   0  0  0  0  0  0  0  0  0  0  0  0
   12.2300   -9.4370  -22.7430 C   0  0  0  0  0  0  0  0  0  0  0  0
   11.0430   -8.6760  -22.3670 N   0  0  0  0  0  0  0  0  0  0  0  0
   10.5570   -7.6580  -23.0700 C   0  0  0  0  0  0  0  0  0  0  0  0
   11.1620   -7.2610  -24.1930 N   0  0  0  0  0  0  0  0  0  0  0  0
    9.4520   -7.0550  -22.6590 N   0  0  0  0  0  0  0  0  0  0  0  0
   11.7180  -13.3530  -25.9940 N   0  0  0  0  0  0  0  0  0  0  0  0
   12.8260  -14.1520  -26.5090 C   0  0  2  0  0  0  0  0  0  0  0  0
   14.1600  -13.4060  -26.4280 C   0  0  0  0  0  0  0  0  0  0  0  0
   15.1980  -14.0120  -26.1570 O   0  0  0  0  0  0  0  0  0  0  0  0
   12.5400  -14.5590  -27.9670 C   0  0  0  0  0  0  0  0  0  0  0  0
   13.6210  -15.2780  -28.7840 C   0  0  0  0  0  0  0  0  0  0  0  0
   13.9930  -16.6360  -28.1630 C   0  0  0  0  0  0  0  0  0  0  0  0
   13.2050  -15.4370  -30.2560 C   0  0  0  0  0  0  0  0  0  0  0  0
   14.1740  -12.1010  -26.6610 N   0  0  0  0  0  0  0  0  0  0  0  0
   15.4310  -11.3630  -26.7920 C   0  0  2  0  0  0  0  0  0  0  0  0
   15.5460  -10.3440  -25.6770 C   0  0  0  0  0  0  0  0  0  0  0  0
   14.6200   -9.5560  -25.4680 O   0  0  0  0  0  0  0  0  0  0  0  0
   15.5340  -10.6510  -28.1420 C   0  0  0  0  0  0  0  0  0  0  0  0
   15.6290  -11.5830  -29.3100 C   0  0  0  0  0  0  0  0  0  0  0  0
   16.7650  -12.3640  -29.4840 C   0  0  0  0  0  0  0  0  0  0  0  0
   14.5960  -11.6720  -30.2350 C   0  0  0  0  0  0  0  0  0  0  0  0
   16.8550  -13.2430  -30.5320 C   0  0  0  0  0  0  0  0  0  0  0  0
   14.6860  -12.5380  -31.3110 C   0  0  0  0  0  0  0  0  0  0  0  0
   15.8230  -13.3240  -31.4590 C   0  0  0  0  0  0  0  0  0  0  0  0
   16.6890  -10.3450  -24.9900 N   0  0  0  0  0  0  0  0  0  0  0  0
   16.9660   -9.3650  -23.9430 C   0  0  2  0  0  0  0  0  0  0  0  0
   18.4570   -9.4030  -23.6470 C   0  0  0  0  0  0  0  0  0  0  0  0
   19.0330  -10.4840  -23.5010 O   0  0  0  0  0  0  0  0  0  0  0  0
   16.1340   -9.6390  -22.6660 C   0  0  0  0  0  0  0  0  0  0  0  0
   15.9680   -8.4040  -21.7410 C   0  0  0  0  0  0  0  0  0  0  0  0
   15.3780   -8.7550  -20.3510 C   0  0  0  0  0  0  0  0  0  0  0  0
   14.9560   -7.5310  -19.6620 N   0  0  0  0  0  0  0  0  0  0  0  0
   15.6700   -6.8860  -18.7390 C   0  0  0  0  0  0  0  0  0  0  0  0
   16.8400   -7.3540  -18.3510 N   0  0  0  0  0  0  0  0  0  0  0  0
   15.2080   -5.7540  -18.2050 N   0  0  0  0  0  0  0  0  0  0  0  0
   19.0740   -8.2220  -23.5460 N   0  0  0  0  0  0  0  0  0  0  0  0
   20.5250   -8.1530  -23.3800 C   0  0  2  0  0  0  0  0  0  0  0  0
   20.9790   -8.8220  -22.0880 C   0  0  0  0  0  0  0  0  0  0  0  0
   22.0020   -9.5150  -22.0630 O   0  0  0  0  0  0  0  0  0  0  0  0
   20.9750   -6.6890  -23.4090 C   0  0  0  0  0  0  0  0  0  0  0  0
   22.4700   -6.4910  -23.2300 C   0  0  0  0  0  0  0  0  0  0  0  0
   22.8150   -5.0150  -22.9270 C   0  0  0  0  0  0  0  0  0  0  0  0
   23.3640   -4.8120  -21.5000 C   0  0  0  0  0  0  0  0  0  0  0  0
   22.2940   -4.5720  -20.4750 N   0  0  0  0  0  0  0  0  0  0  0  0
   14.6680   -5.2540  -30.9610 N   0  0  0  0  0  0  0  0  0  0  0  0
   15.9200   -5.7360  -30.3880 C   0  0  2  0  0  0  0  0  0  0  0  0
   17.0270   -5.7140  -31.4400 C   0  0  0  0  0  0  0  0  0  0  0  0
   16.9310   -6.4070  -32.4600 O   0  0  0  0  0  0  0  0  0  0  0  0
   15.7510   -7.1520  -29.8410 C   0  0  0  0  0  0  0  0  0  0  0  0
   16.9630   -7.6700  -29.0930 C   0  0  0  0  0  0  0  0  0  0  0  0
   17.2090   -7.2840  -27.7700 C   0  0  0  0  0  0  0  0  0  0  0  0
   17.8600   -8.5420  -29.7110 C   0  0  0  0  0  0  0  0  0  0  0  0
   18.3130   -7.7690  -27.0800 C   0  0  0  0  0  0  0  0  0  0  0  0
   18.9500   -9.0580  -29.0320 C   0  0  0  0  0  0  0  0  0  0  0  0
   19.1810   -8.6710  -27.7270 C   0  0  0  0  0  0  0  0  0  0  0  0
   20.2750   -9.1830  -27.0740 O   0  0  0  0  0  0  0  0  0  0  0  0
   18.0950   -4.9610  -31.1660 N   0  0  0  0  0  0  0  0  0  0  0  0
   19.2250   -4.8200  -32.0860 C   0  0  2  0  0  0  0  0  0  0  0  0
   20.2280   -5.9500  -31.8360 C   0  0  0  0  0  0  0  0  0  0  0  0
   20.9370   -5.9560  -30.8260 O   0  0  0  0  0  0  0  0  0  0  0  0
   19.8850   -3.4480  -31.9160 C   0  0  0  0  0  0  0  0  0  0  0  0
   20.9880   -3.1520  -32.9360 C   0  0  0  0  0  0  0  0  0  0  0  0
   21.7410   -1.8570  -32.6510 C   0  0  0  0  0  0  0  0  0  0  0  0
   21.1660   -0.8910  -32.1470 O   0  0  0  0  0  0  0  0  0  0  0  0
   23.0240   -1.8230  -33.0110 N   0  0  0  0  0  0  0  0  0  0  0  0
   20.2910   -6.9060  -32.7570 N   0  0  0  0  0  0  0  0  0  0  0  0
   21.1970   -8.0380  -32.6300 C   0  0  2  0  0  0  0  0  0  0  0  0
   22.5460   -7.8080  -33.3030 C   0  0  0  0  0  0  0  0  0  0  0  0
   23.4460   -8.6420  -33.1510 O   0  0  0  0  0  0  0  0  0  0  0  0
   20.5510   -9.2980  -33.2220 C   0  0  0  0  0  0  0  0  0  0  0  0
   22.7100   -6.7110  -34.0460 N   0  0  0  0  0  0  0  0  0  0  0  0
   23.9440   -6.4750  -34.7700 C   0  0  0  0  0  0  0  0  0  0  0  0
   24.4550   -5.0770  -34.5180 C   0  0  0  0  0  0  0  0  0  0  0  0
   24.0810   -4.4410  -33.5300 O   0  0  0  0  0  0  0  0  0  0  0  0
   25.2730   -4.5700  -35.4320 N   0  0  0  0  0  0  0  0  0  0  0  0
   25.8680   -3.2530  -35.2830 C   0  0  2  0  0  0  0  0  0  0  0  0
   24.9720   -2.1420  -35.8040 C   0  0  0  0  0  0  0  0  0  0  0  0
   25.1910   -0.9770  -35.4690 O   0  0  0  0  0  0  0  0  0  0  0  0
   27.2040   -3.2110  -36.0220 C   0  0  0  0  0  0  0  0  0  0  0  0
   28.1360   -4.0430  -35.3580 O   0  0  0  0  0  0  0  0  0  0  0  0
   23.9850   -2.4700  -36.5600 N   0  0  0  0  0  0  0  0  0  0  0  0
   23.2140   -1.4590  -37.2580 C   0  0  2  0  0  0  0  0  0  0  0  0
   21.9950   -1.0820  -36.4350 C   0  0  0  0  0  0  0  0  0  0  0  0
   21.2300   -1.9660  -36.0450 O   0  0  0  0  0  0  0  0  0  0  0  0
   22.7790   -1.9710  -38.6210 C   0  0  2  0  0  0  0  0  0  0  0  0
   23.9100   -2.0030  -39.5040 O   0  0  0  0  0  0  0  0  0  0  0  0
   21.7320   -1.0400  -39.2110 C   0  0  0  0  0  0  0  0  0  0  0  0
   16.3450   -7.5510  -40.7530 N   0  0  0  0  0  0  0  0  0  0  0  0
   17.4670   -8.4100  -40.4170 C   0  0  2  0  0  0  0  0  0  0  0  0
   18.2310   -7.8070  -39.2410 C   0  0  0  0  0  0  0  0  0  0  0  0
   18.5110   -6.6060  -39.2130 O   0  0  0  0  0  0  0  0  0  0  0  0
   18.3740   -8.6030  -41.6300 C   0  0  0  0  0  0  0  0  0  0  0  0
   19.6060   -9.3980  -41.3330 C   0  0  0  0  0  0  0  0  0  0  0  0
   19.5120  -10.7450  -40.9970 C   0  0  0  0  0  0  0  0  0  0  0  0
   20.8610   -8.8040  -41.3770 C   0  0  0  0  0  0  0  0  0  0  0  0
   20.6530  -11.4900  -40.7020 C   0  0  0  0  0  0  0  0  0  0  0  0
   22.0130   -9.5440  -41.0850 C   0  0  0  0  0  0  0  0  0  0  0  0
   21.9040  -10.8960  -40.7460 C   0  0  0  0  0  0  0  0  0  0  0  0
   18.5310   -8.6420  -38.2500 N   0  0  0  0  0  0  0  0  0  0  0  0
   19.2530   -8.2440  -37.0410 C   0  0  2  0  0  0  0  0  0  0  0  0
   18.5120   -7.1950  -36.2250 C   0  0  0  0  0  0  0  0  0  0  0  0
   19.1180   -6.5370  -35.3750 O   0  0  0  0  0  0  0  0  0  0  0  0
   20.6690   -7.7580  -37.3680 C   0  0  0  0  0  0  0  0  0  0  0  0
   21.6600   -8.8980  -37.4060 C   0  0  0  0  0  0  0  0  0  0  0  0
   21.3620   -9.9970  -36.9150 O   0  0  0  0  0  0  0  0  0  0  0  0
   22.8290   -8.6620  -37.9950 N   0  0  0  0  0  0  0  0  0  0  0  0
   14.8870   -7.4520  -34.3490 N   0  0  0  0  0  0  0  0  0  0  0  0
   13.7910   -8.3680  -34.0760 C   0  0  2  0  0  0  0  0  0  0  0  0
   12.8650   -7.8360  -32.9900 C   0  0  0  0  0  0  0  0  0  0  0  0
   13.3130   -7.3130  -31.9610 O   0  0  0  0  0  0  0  0  0  0  0  0
   14.3220   -9.7650  -33.6890 C   0  0  0  0  0  0  0  0  0  0  0  0
   15.2380  -10.2910  -34.7580 C   0  0  0  0  0  0  0  0  0  0  0  0
   14.7270  -10.7470  -35.9670 C   0  0  0  0  0  0  0  0  0  0  0  0
   16.6230  -10.2720  -34.5930 C   0  0  0  0  0  0  0  0  0  0  0  0
   15.5650  -11.1890  -36.9750 C   0  0  0  0  0  0  0  0  0  0  0  0
   17.4720  -10.7150  -35.5910 C   0  0  0  0  0  0  0  0  0  0  0  0
   16.9350  -11.1570  -36.7880 C   0  0  0  0  0  0  0  0  0  0  0  0
   17.7530  -11.5920  -37.7910 O   0  0  0  0  0  0  0  0  0  0  0  0
  2  1  1  1
  3  2  1  0
  4  3  2  0
  5  2  1  0
  6  5  1  0
  7  6  1  0
  8  7  1  0
  9  8  1  0
 11 10  1  1
 12 11  1  0
 13 12  2  0
 14 11  1  0
 15 14  1  0
 16 15  2  0
 17 15  1  0
 18 16  1  0
 19 17  2  0
 20 19  1  0
 20 18  2  0
 21 20  1  0
 23 22  1  1
 24 23  1  0
 25 24  2  0
 26 23  1  0
 27 26  1  0
 28 27  1  0
 29 28  1  0
 30 29  1  0
 31 30  1  0
 32 30  2  0
 33 24  1  0
 34 33  1  0
 35 34  1  0
 36 35  2  0
 34 37  1  6
 38 37  1  0
 39 38  1  0
 40 38  1  0
 41 35  1  0
 42 41  1  0
 43 42  1  0
 44 43  2  0
 42 45  1  6
 46 45  1  0
 47 46  2  0
 48 46  1  0
 49 47  1  0
 50 48  2  0
 51 50  1  0
 51 49  2  0
 52 43  1  0
 53 52  1  0
 54 53  1  0
 55 54  2  0
 53 56  1  1
 57 56  1  0
 58 57  1  0
 59 58  1  0
 60 59  1  0
 61 60  1  0
 62 60  2  0
 63 54  1  0
 64 63  1  0
 65 64  1  0
 66 65  2  0
 64 67  1  1
 68 67  1  0
 69 68  1  0
 70 69  1  0
 71 70  1  0
 73 72  1  6
 74 73  1  0
 75 74  2  0
 76 73  1  0
 77 76  1  0
 78 77  2  0
 79 77  1  0
 80 78  1  0
 81 79  2  0
 82 81  1  0
 82 80  2  0
 83 82  1  0
 84 74  1  0
 85 84  1  0
 86 85  1  0
 87 86  2  0
 85 88  1  1
 89 88  1  0
 90 89  1  0
 91 90  2  0
 92 90  1  0
 93 86  1  0
 94 93  1  0
 95 94  1  0
 96 95  2  0
 94 97  1  6
 98 95  1  0
 99 98  1  0
100 99  1  0
101100  2  0
102100  1  0
103102  1  0
104103  1  0
105104  2  0
103106  1  6
107106  1  0
108104  1  0
109108  1  1
110109  1  0
111110  2  0
112109  1  0
113112  1  0
112114  1  6
116115  1  6
117116  1  0
118117  2  0
119116  1  0
120119  1  0
121120  2  0
122120  1  0
123121  1  0
124122  2  0
125123  2  0
125124  1  0
126117  1  0
127126  1  0
128127  1  0
129128  2  0
127130  1  6
131130  1  0
132131  2  0
133131  1  0
135134  1  1
136135  1  0
137136  2  0
138135  1  0
139138  1  0
140139  2  0
141139  1  0
142140  1  0
143141  2  0
144142  2  0
144143  1  0
145144  1  0
M  END
$$$$
