
     RDKit          3D

105102  0  0  0  0  0  0  0  0999 V2000
  -16.9850  -24.9990   60.9070 N   0  0  0  0  0  0  0  0  0  0  0  0
  -15.6510  -24.4050   60.9080 C   0  0  2  0  0  0  0  0  0  0  0  0
  -14.7260  -25.1180   61.8870 C   0  0  0  0  0  0  0  0  0  0  0  0
  -13.6050  -25.4990   61.5290 O   0  0  0  0  0  0  0  0  0  0  0  0
  -15.7350  -22.9140   61.2360 C   0  0  0  0  0  0  0  0  0  0  0  0
  -15.7950  -22.0170   60.0210 C   0  0  0  0  0  0  0  0  0  0  0  0
  -14.7970  -22.0600   59.0560 C   0  0  0  0  0  0  0  0  0  0  0  0
  -16.8390  -21.1190   59.8450 C   0  0  0  0  0  0  0  0  0  0  0  0
  -14.8410  -21.2410   57.9440 C   0  0  0  0  0  0  0  0  0  0  0  0
  -16.8920  -20.2940   58.7350 C   0  0  0  0  0  0  0  0  0  0  0  0
  -15.8910  -20.3600   57.7890 C   0  0  0  0  0  0  0  0  0  0  0  0
  -15.9390  -19.5420   56.6840 O   0  0  0  0  0  0  0  0  0  0  0  0
  -14.0690  -28.9020   60.6410 N   0  0  0  0  0  0  0  0  0  0  0  0
  -13.4150  -29.1640   59.3680 C   0  0  2  0  0  0  0  0  0  0  0  0
  -12.1710  -28.3210   59.1290 C   0  0  0  0  0  0  0  0  0  0  0  0
  -11.4540  -28.5740   58.1550 O   0  0  0  0  0  0  0  0  0  0  0  0
  -14.4070  -28.9400   58.2180 C   0  0  0  0  0  0  0  0  0  0  0  0
  -15.4890  -30.0010   58.1690 C   0  0  0  0  0  0  0  0  0  0  0  0
  -15.1600  -31.1950   58.3350 O   0  0  0  0  0  0  0  0  0  0  0  0
  -16.6680  -29.6410   57.9680 O   0  0  0  0  0  0  0  0  0  0  0  0
  -11.8960  -27.3270   59.9760 N   0  0  0  0  0  0  0  0  0  0  0  0
  -10.7110  -26.4970   59.8200 C   0  0  2  0  0  0  0  0  0  0  0  0
   -9.8570  -26.4070   61.0740 C   0  0  0  0  0  0  0  0  0  0  0  0
   -8.7340  -25.8960   60.9940 O   0  0  0  0  0  0  0  0  0  0  0  0
  -11.1010  -25.0740   59.3850 C   0  0  0  0  0  0  0  0  0  0  0  0
  -11.8050  -25.0190   58.0650 C   0  0  0  0  0  0  0  0  0  0  0  0
  -11.2710  -24.3880   56.9620 N   0  0  0  0  0  0  0  0  0  0  0  0
  -13.0050  -25.5080   57.6740 C   0  0  0  0  0  0  0  0  0  0  0  0
  -12.1100  -24.4950   55.9470 C   0  0  0  0  0  0  0  0  0  0  0  0
  -13.1700  -25.1700   56.3530 N   0  0  0  0  0  0  0  0  0  0  0  0
   -9.2350  -31.1050   62.0710 N   0  0  0  0  0  0  0  0  0  0  0  0
   -8.8090  -32.0030   61.0130 C   0  0  2  0  0  0  0  0  0  0  0  0
   -7.3870  -32.4950   61.2750 C   0  0  0  0  0  0  0  0  0  0  0  0
   -6.6550  -31.9600   62.1120 O   0  0  0  0  0  0  0  0  0  0  0  0
   -8.8920  -31.3090   59.6560 C   0  0  0  0  0  0  0  0  0  0  0  0
   -8.1970  -29.6400   59.6380 S   0  0  0  0  0  0  0  0  0  0  0  0
   -6.9980  -33.5340   60.5430 N   0  0  0  0  0  0  0  0  0  0  0  0
   -5.6620  -34.0950   60.6970 C   0  0  2  0  0  0  0  0  0  0  0  0
   -4.6220  -33.1630   60.0930 C   0  0  0  0  0  0  0  0  0  0  0  0
   -4.7500  -32.7320   58.9430 O   0  0  0  0  0  0  0  0  0  0  0  0
   -5.5690  -35.4670   60.0350 C   0  0  0  0  0  0  0  0  0  0  0  0
   -4.2360  -36.1630   60.2750 C   0  0  0  0  0  0  0  0  0  0  0  0
   -4.1610  -37.5400   59.6450 C   0  0  0  0  0  0  0  0  0  0  0  0
   -5.1370  -37.9500   58.9810 O   0  0  0  0  0  0  0  0  0  0  0  0
   -3.1190  -38.2100   59.8040 O   0  0  0  0  0  0  0  0  0  0  0  0
   -3.5880  -32.8530   60.8710 N   0  0  0  0  0  0  0  0  0  0  0  0
   -2.4260  -32.1190   60.3870 C   0  0  2  0  0  0  0  0  0  0  0  0
   -1.1780  -32.8750   60.8270 C   0  0  0  0  0  0  0  0  0  0  0  0
   -0.9920  -33.1380   62.0220 O   0  0  0  0  0  0  0  0  0  0  0  0
   -2.4030  -30.6600   60.8830 C   0  0  2  0  0  0  0  0  0  0  0  0
   -1.2210  -29.9040   60.2730 C   0  0  0  0  0  0  0  0  0  0  0  0
   -2.3820  -30.5840   62.4010 C   0  0  0  0  0  0  0  0  0  0  0  0
   -1.2440  -28.4180   60.5470 C   0  0  0  0  0  0  0  0  0  0  0  0
   -0.3500  -33.2620   59.8560 N   0  0  0  0  0  0  0  0  0  0  0  0
    0.9210  -33.9420   60.1200 C   0  0  2  0  0  0  0  0  0  0  0  0
    0.7380  -35.1750   61.0030 C   0  0  0  0  0  0  0  0  0  0  0  0
    1.6240  -35.5390   61.7800 O   0  0  0  0  0  0  0  0  0  0  0  0
    1.9360  -32.9790   60.7400 C   0  0  0  0  0  0  0  0  0  0  0  0
    2.2430  -31.7740   59.8650 C   0  0  0  0  0  0  0  0  0  0  0  0
    3.2270  -30.8170   60.5070 C   0  0  0  0  0  0  0  0  0  0  0  0
    3.7370  -31.1330   61.6020 O   0  0  0  0  0  0  0  0  0  0  0  0
    3.4850  -29.7460   59.9180 O   0  0  0  0  0  0  0  0  0  0  0  0
   -2.8790  -24.2460   62.4200 N   0  0  0  0  0  0  0  0  0  0  0  0
   -4.3010  -24.4340   62.1340 C   0  0  2  0  0  0  0  0  0  0  0  0
   -5.1270  -23.2980   62.7290 C   0  0  0  0  0  0  0  0  0  0  0  0
   -5.9810  -22.7100   62.0540 O   0  0  0  0  0  0  0  0  0  0  0  0
   -4.7780  -25.8050   62.6450 C   0  0  2  0  0  0  0  0  0  0  0  0
   -4.5630  -26.8790   61.5800 C   0  0  0  0  0  0  0  0  0  0  0  0
   -6.2320  -25.7580   63.0610 C   0  0  0  0  0  0  0  0  0  0  0  0
   -4.9720  -28.2560   62.0350 C   0  0  0  0  0  0  0  0  0  0  0  0
   -4.5730  -19.8160   61.0220 N   0  0  0  0  0  0  0  0  0  0  0  0
   -5.0560  -19.7200   59.6470 C   0  0  2  0  0  0  0  0  0  0  0  0
   -6.5440  -19.3950   59.6120 C   0  0  0  0  0  0  0  0  0  0  0  0
   -6.9670  -18.4610   58.9210 O   0  0  0  0  0  0  0  0  0  0  0  0
   -4.7710  -21.0130   58.8850 C   0  0  0  0  0  0  0  0  0  0  0  0
   -5.3180  -20.9970   57.4660 C   0  0  0  0  0  0  0  0  0  0  0  0
   -4.6390  -19.9130   56.6430 C   0  0  0  0  0  0  0  0  0  0  0  0
   -5.3550  -19.6070   55.4100 N   0  0  0  0  0  0  0  0  0  0  0  0
   -6.0170  -18.4790   55.1860 C   0  0  0  0  0  0  0  0  0  0  0  0
   -6.0850  -17.5230   56.0980 N   0  0  0  0  0  0  0  0  0  0  0  0
   -6.6220  -18.3040   54.0140 N   0  0  0  0  0  0  0  0  0  0  0  0
   -7.3530  -20.1580   60.3520 N   0  0  0  0  0  0  0  0  0  0  0  0
   -8.7710  -19.8340   60.4610 C   0  0  2  0  0  0  0  0  0  0  0  0
   -8.9790  -18.4440   61.0420 C   0  0  0  0  0  0  0  0  0  0  0  0
   -9.9520  -17.7660   60.6930 O   0  0  0  0  0  0  0  0  0  0  0  0
   -9.4920  -20.8800   61.3130 C   0  0  0  0  0  0  0  0  0  0  0  0
  -11.0170  -20.7770   61.3130 C   0  0  0  0  0  0  0  0  0  0  0  0
  -11.5550  -20.8980   59.8960 C   0  0  0  0  0  0  0  0  0  0  0  0
  -11.6490  -21.8170   62.2290 C   0  0  0  0  0  0  0  0  0  0  0  0
   -8.0840  -18.0020   61.9210 N   0  0  0  0  0  0  0  0  0  0  0  0
   -8.1270  -16.6350   62.3950 C   0  0  0  0  0  0  0  0  0  0  0  0
   -7.9750  -15.6450   61.2600 C   0  0  0  0  0  0  0  0  0  0  0  0
   -8.8440  -14.7970   61.0490 O   0  0  0  0  0  0  0  0  0  0  0  0
   -8.2140  -16.1640   58.0860 N   0  0  0  0  0  0  0  0  0  0  0  0
   -9.2770  -16.3650   57.1050 C   0  0  2  0  0  0  0  0  0  0  0  0
  -10.5300  -15.5820   57.4730 C   0  0  0  0  0  0  0  0  0  0  0  0
  -11.1630  -14.9660   56.6070 O   0  0  0  0  0  0  0  0  0  0  0  0
   -9.5880  -17.8580   56.9840 C   0  0  0  0  0  0  0  0  0  0  0  0
  -10.6450  -18.2120   55.9610 C   0  0  0  0  0  0  0  0  0  0  0  0
  -10.3250  -18.3470   54.6170 C   0  0  0  0  0  0  0  0  0  0  0  0
  -11.9610  -18.4340   56.3450 C   0  0  0  0  0  0  0  0  0  0  0  0
  -11.2880  -18.6820   53.6840 C   0  0  0  0  0  0  0  0  0  0  0  0
  -12.9310  -18.7680   55.4180 C   0  0  0  0  0  0  0  0  0  0  0  0
  -12.5890  -18.8900   54.0890 C   0  0  0  0  0  0  0  0  0  0  0  0
  -13.5520  -19.2230   53.1630 O   0  0  0  0  0  0  0  0  0  0  0  0
  2  1  1  1
  3  2  1  0
  4  3  2  0
  5  2  1  0
  6  5  1  0
  7  6  2  0
  8  6  1  0
  9  7  1  0
 10  8  2  0
 11 10  1  0
 11  9  2  0
 12 11  1  0
 14 13  1  1
 15 14  1  0
 16 15  2  0
 17 14  1  0
 18 17  1  0
 19 18  2  0
 20 18  1  0
 21 15  1  0
 22 21  1  0
 23 22  1  0
 24 23  2  0
 22 25  1  1
 26 25  1  0
 27 26  1  0
 28 26  2  0
 29 27  2  0
 30 29  1  0
 30 28  1  0
 32 31  1  1
 33 32  1  0
 34 33  2  0
 35 32  1  0
 36 35  1  0
 37 33  1  0
 38 37  1  0
 39 38  1  0
 40 39  2  0
 38 41  1  6
 42 41  1  0
 43 42  1  0
 44 43  2  0
 45 43  1  0
 46 39  1  0
 47 46  1  1
 48 47  1  0
 49 48  2  0
 50 47  1  0
 51 50  1  0
 50 52  1  1
 53 51  1  0
 54 48  1  0
 55 54  1  0
 56 55  1  0
 57 56  2  0
 55 58  1  1
 59 58  1  0
 60 59  1  0
 61 60  2  0
 62 60  1  0
 64 63  1  1
 65 64  1  0
 66 65  2  0
 67 64  1  0
 68 67  1  0
 67 69  1  6
 70 68  1  0
 72 71  1  1
 73 72  1  0
 74 73  2  0
 75 72  1  0
 76 75  1  0
 77 76  1  0
 78 77  1  0
 79 78  1  0
 80 79  1  0
 81 79  2  0
 82 73  1  0
 83 82  1  0
 84 83  1  0
 85 84  2  0
 83 86  1  1
 87 86  1  0
 88 87  1  0
 89 87  1  0
 90 84  1  0
 91 90  1  0
 92 91  1  0
 93 92  2  0
 95 94  1  1
 96 95  1  0
 97 96  2  0
 98 95  1  0
 99 98  1  0
100 99  2  0
101 99  1  0
102100  1  0
103101  2  0
104102  2  0
104103  1  0
105104  1  0
M  END
$$$$
