
     RDKit          3D

333320  0  0  0  0  0  0  0  0999 V2000
  155.3630  151.4890  164.4910 N   0  0  0  0  0  0  0  0  0  0  0  0
  155.8150  152.6390  163.7110 C   0  0  2  0  0  0  0  0  0  0  0  0
  157.1730  152.3490  163.0870 C   0  0  0  0  0  0  0  0  0  0  0  0
  157.4050  152.6280  161.9040 O   0  0  0  0  0  0  0  0  0  0  0  0
  155.8580  153.9030  164.5880 C   0  0  0  0  0  0  0  0  0  0  0  0
  156.4400  155.0690  163.8080 C   0  0  0  0  0  0  0  0  0  0  0  0
  154.4670  154.2450  165.0900 C   0  0  0  0  0  0  0  0  0  0  0  0
  156.7140  149.7970  160.2150 N   0  0  0  0  0  0  0  0  0  0  0  0
  156.1240  150.4040  159.0270 C   0  0  2  0  0  0  0  0  0  0  0  0
  157.1340  151.3110  158.3400 C   0  0  0  0  0  0  0  0  0  0  0  0
  157.2730  151.2960  157.1110 O   0  0  0  0  0  0  0  0  0  0  0  0
  154.8430  151.1710  159.4010 C   0  0  0  0  0  0  0  0  0  0  0  0
  154.4000  152.0560  158.2490 C   0  0  0  0  0  0  0  0  0  0  0  0
  153.7410  150.2010  159.7870 C   0  0  0  0  0  0  0  0  0  0  0  0
  157.8560  152.1140  159.1220 N   0  0  0  0  0  0  0  0  0  0  0  0
  158.8040  153.0580  158.5420 C   0  0  2  0  0  0  0  0  0  0  0  0
  159.9080  152.3460  157.7720 C   0  0  0  0  0  0  0  0  0  0  0  0
  160.2580  152.7550  156.6590 O   0  0  0  0  0  0  0  0  0  0  0  0
  159.4010  153.9300  159.6460 C   0  0  0  0  0  0  0  0  0  0  0  0
  160.4490  154.8890  159.1270 C   0  0  0  0  0  0  0  0  0  0  0  0
  161.5420  154.4820  158.7370 O   0  0  0  0  0  0  0  0  0  0  0  0
  160.1210  156.1740  159.1220 N   0  0  0  0  0  0  0  0  0  0  0  0
  160.4710  151.2790  158.3400 N   0  0  0  0  0  0  0  0  0  0  0  0
  161.5650  150.5940  157.6610 C   0  0  2  0  0  0  0  0  0  0  0  0
  161.0610  149.8810  156.4120 C   0  0  0  0  0  0  0  0  0  0  0  0
  161.7490  149.8400  155.3860 O   0  0  0  0  0  0  0  0  0  0  0  0
  162.2760  149.6270  158.6260 C   0  0  2  0  0  0  0  0  0  0  0  0
  163.5430  149.0570  157.9820 C   0  0  0  0  0  0  0  0  0  0  0  0
  161.3510  148.4960  159.0500 C   0  0  0  0  0  0  0  0  0  0  0  0
  164.5070  150.1070  157.4690 C   0  0  0  0  0  0  0  0  0  0  0  0
  158.4850  150.7570  154.5160 N   0  0  0  0  0  0  0  0  0  0  0  0
  157.9430  151.6440  153.4920 C   0  0  2  0  0  0  0  0  0  0  0  0
  158.9890  152.0110  152.4490 C   0  0  0  0  0  0  0  0  0  0  0  0
  158.6390  152.3090  151.3020 O   0  0  0  0  0  0  0  0  0  0  0  0
  157.3800  152.9080  154.1390 C   0  0  0  0  0  0  0  0  0  0  0  0
  158.6780  153.0290  148.0240 N   0  0  0  0  0  0  0  0  0  0  0  0
  159.1170  154.2420  147.3620 C   0  0  0  0  0  0  0  0  0  0  0  0
  158.8330  155.4990  148.1580 C   0  0  0  0  0  0  0  0  0  0  0  0
  159.0730  156.6100  147.6790 O   0  0  0  0  0  0  0  0  0  0  0  0
  158.3220  155.3390  149.3760 N   0  0  0  0  0  0  0  0  0  0  0  0
  158.0210  156.4870  150.2150 C   0  0  2  0  0  0  0  0  0  0  0  0
  159.3050  157.1820  150.6600 C   0  0  0  0  0  0  0  0  0  0  0  0
  160.4040  156.6260  150.5910 O   0  0  0  0  0  0  0  0  0  0  0  0
  157.2200  156.0560  151.4430 C   0  0  0  0  0  0  0  0  0  0  0  0
  155.7240  156.1050  151.2490 C   0  0  0  0  0  0  0  0  0  0  0  0
  155.0740  155.1560  150.4740 C   0  0  0  0  0  0  0  0  0  0  0  0
  154.9620  157.0970  151.8450 C   0  0  0  0  0  0  0  0  0  0  0  0
  153.7070  155.1970  150.2960 C   0  0  0  0  0  0  0  0  0  0  0  0
  153.5960  157.1450  151.6740 C   0  0  0  0  0  0  0  0  0  0  0  0
  152.9730  156.1930  150.8980 C   0  0  0  0  0  0  0  0  0  0  0  0
  151.6100  156.2380  150.7250 O   0  0  0  0  0  0  0  0  0  0  0  0
  159.1480  158.4230  151.1220 N   0  0  0  0  0  0  0  0  0  0  0  0
  160.2500  159.1910  151.6980 C   0  0  2  0  0  0  0  0  0  0  0  0
  160.0670  159.1930  153.2130 C   0  0  0  0  0  0  0  0  0  0  0  0
  159.5030  160.1140  153.8030 O   0  0  0  0  0  0  0  0  0  0  0  0
  160.2880  160.6030  151.1250 C   0  0  0  0  0  0  0  0  0  0  0  0
  161.3150  161.4820  151.8100 C   0  0  0  0  0  0  0  0  0  0  0  0
  162.3040  160.9370  152.3440 O   0  0  0  0  0  0  0  0  0  0  0  0
  161.1340  162.7180  151.8160 O   0  0  0  0  0  0  0  0  0  0  0  0
  160.5630  158.1340  153.8460 N   0  0  0  0  0  0  0  0  0  0  0  0
  160.4160  157.9550  155.2860 C   0  0  2  0  0  0  0  0  0  0  0  0
  161.3790  158.8930  156.0010 C   0  0  0  0  0  0  0  0  0  0  0  0
  162.6000  158.7440  155.8920 O   0  0  0  0  0  0  0  0  0  0  0  0
  160.6790  156.5050  155.6710 C   0  0  2  0  0  0  0  0  0  0  0  0
  162.0220  156.1510  155.3160 O   0  0  0  0  0  0  0  0  0  0  0  0
  159.7080  155.5850  154.9550 C   0  0  0  0  0  0  0  0  0  0  0  0
  160.8320  159.8550  156.7360 N   0  0  0  0  0  0  0  0  0  0  0  0
  161.6400  160.9110  157.3240 C   0  0  2  0  0  0  0  0  0  0  0  0
  162.3850  160.3610  158.5340 C   0  0  0  0  0  0  0  0  0  0  0  0
  161.7850  159.7330  159.4110 O   0  0  0  0  0  0  0  0  0  0  0  0
  160.7520  162.0890  157.7200 C   0  0  0  0  0  0  0  0  0  0  0  0
  161.5120  163.3270  158.0750 C   0  0  0  0  0  0  0  0  0  0  0  0
  161.9960  163.5700  159.3420 N   0  0  0  0  0  0  0  0  0  0  0  0
  161.8620  164.3990  157.3260 C   0  0  0  0  0  0  0  0  0  0  0  0
  162.6160  164.7360  159.3560 C   0  0  0  0  0  0  0  0  0  0  0  0
  162.5480  165.2600  158.1460 N   0  0  0  0  0  0  0  0  0  0  0  0
  163.7870  161.5020  161.2360 N   0  0  0  0  0  0  0  0  0  0  0  0
  163.4610  161.9000  162.6020 C   0  0  2  0  0  0  0  0  0  0  0  0
  162.4470  160.9550  163.2330 C   0  0  0  0  0  0  0  0  0  0  0  0
  162.5600  160.6080  164.4140 O   0  0  0  0  0  0  0  0  0  0  0  0
  162.9140  163.3260  162.6230 C   0  0  0  0  0  0  0  0  0  0  0  0
  163.9330  164.4120  162.3720 C   0  0  0  0  0  0  0  0  0  0  0  0
  165.2280  164.1130  161.9760 C   0  0  0  0  0  0  0  0  0  0  0  0
  163.5880  165.7450  162.5250 C   0  0  0  0  0  0  0  0  0  0  0  0
  166.1470  165.1150  161.7460 C   0  0  0  0  0  0  0  0  0  0  0  0
  164.4950  166.7470  162.2960 C   0  0  0  0  0  0  0  0  0  0  0  0
  165.7720  166.4310  161.9080 C   0  0  0  0  0  0  0  0  0  0  0  0
  166.6710  167.4440  161.6840 O   0  0  0  0  0  0  0  0  0  0  0  0
  161.4490  160.5240  162.4590 N   0  0  0  0  0  0  0  0  0  0  0  0
  160.4110  159.6590  163.0110 C   0  0  2  0  0  0  0  0  0  0  0  0
  161.0060  158.3400  163.4810 C   0  0  0  0  0  0  0  0  0  0  0  0
  160.6790  157.8490  164.5690 O   0  0  0  0  0  0  0  0  0  0  0  0
  159.2930  159.4420  161.9770 C   0  0  2  0  0  0  0  0  0  0  0  0
  158.4290  160.6980  161.8680 C   0  0  0  0  0  0  0  0  0  0  0  0
  158.4420  158.2440  162.3630 C   0  0  0  0  0  0  0  0  0  0  0  0
  157.5500  160.7300  160.6400 C   0  0  0  0  0  0  0  0  0  0  0  0
  162.1550  168.1800  164.8000 N   0  0  0  0  0  0  0  0  0  0  0  0
  161.0800  167.9270  163.8470 C   0  0  2  0  0  0  0  0  0  0  0  0
  160.3590  169.2150  163.4740 C   0  0  0  0  0  0  0  0  0  0  0  0
  160.0910  169.4710  162.2940 O   0  0  0  0  0  0  0  0  0  0  0  0
  160.0940  166.9190  164.4350 C   0  0  0  0  0  0  0  0  0  0  0  0
  160.4400  165.4710  164.1540 C   0  0  0  0  0  0  0  0  0  0  0  0
  158.9900  164.4080  164.1580 S   0  0  0  0  0  0  0  0  0  0  0  0
  159.7630  162.7970  164.1430 C   0  0  0  0  0  0  0  0  0  0  0  0
  160.0360  170.0440  164.4670 N   0  0  0  0  0  0  0  0  0  0  0  0
  159.3100  171.2770  164.1850 C   0  0  2  0  0  0  0  0  0  0  0  0
  160.1040  172.1850  163.2560 C   0  0  0  0  0  0  0  0  0  0  0  0
  159.5610  172.7270  162.2870 O   0  0  0  0  0  0  0  0  0  0  0  0
  158.9870  172.0030  165.4890 C   0  0  0  0  0  0  0  0  0  0  0  0
  158.3080  173.2190  165.2290 O   0  0  0  0  0  0  0  0  0  0  0  0
  162.4770  171.3770  161.1450 N   0  0  0  0  0  0  0  0  0  0  0  0
  162.5770  170.7770  159.8200 C   0  0  2  0  0  0  0  0  0  0  0  0
  161.2850  170.9430  159.0310 C   0  0  0  0  0  0  0  0  0  0  0  0
  161.3180  171.2110  157.8240 O   0  0  0  0  0  0  0  0  0  0  0  0
  162.9390  169.2980  159.9420 C   0  0  0  0  0  0  0  0  0  0  0  0
  162.9720  168.5970  158.6000 C   0  0  0  0  0  0  0  0  0  0  0  0
  161.8920  168.2310  158.0930 O   0  0  0  0  0  0  0  0  0  0  0  0
  164.0790  168.4160  158.0500 O   0  0  0  0  0  0  0  0  0  0  0  0
  160.1360  170.7860  159.6890 N   0  0  0  0  0  0  0  0  0  0  0  0
  158.8650  170.9590  158.9920 C   0  0  2  0  0  0  0  0  0  0  0  0
  158.7290  172.3720  158.4390 C   0  0  0  0  0  0  0  0  0  0  0  0
  158.3980  172.5590  157.2630 O   0  0  0  0  0  0  0  0  0  0  0  0
  157.7060  170.6300  159.9320 C   0  0  0  0  0  0  0  0  0  0  0  0
  156.3460  170.6200  159.2580 C   0  0  0  0  0  0  0  0  0  0  0  0
  155.3790  169.6980  159.9850 C   0  0  0  0  0  0  0  0  0  0  0  0
  153.9910  169.9720  159.6360 N   0  0  0  0  0  0  0  0  0  0  0  0
  152.9550  169.2650  160.0670 C   0  0  0  0  0  0  0  0  0  0  0  0
  153.1130  168.2270  160.8730 N   0  0  0  0  0  0  0  0  0  0  0  0
  151.7300  169.6070  159.6800 N   0  0  0  0  0  0  0  0  0  0  0  0
  158.9810  173.3830  159.2710 N   0  0  0  0  0  0  0  0  0  0  0  0
  158.8380  174.7580  158.8040 C   0  0  2  0  0  0  0  0  0  0  0  0
  159.7830  175.0450  157.6460 C   0  0  0  0  0  0  0  0  0  0  0  0
  159.4040  175.7040  156.6720 O   0  0  0  0  0  0  0  0  0  0  0  0
  159.0930  175.7400  159.9430 C   0  0  0  0  0  0  0  0  0  0  0  0
  159.2010  177.1700  159.4720 C   0  0  0  0  0  0  0  0  0  0  0  0
  158.0650  177.9180  159.2050 C   0  0  0  0  0  0  0  0  0  0  0  0
  160.4370  177.7670  159.2780 C   0  0  0  0  0  0  0  0  0  0  0  0
  158.1560  179.2230  158.7700 C   0  0  0  0  0  0  0  0  0  0  0  0
  160.5380  179.0710  158.8420 C   0  0  0  0  0  0  0  0  0  0  0  0
  159.3940  179.7950  158.5900 C   0  0  0  0  0  0  0  0  0  0  0  0
  159.4880  181.0960  158.1550 O   0  0  0  0  0  0  0  0  0  0  0  0
  160.9140  172.8610  155.5490 N   0  0  0  0  0  0  0  0  0  0  0  0
  160.5030  172.0920  154.3800 C   0  0  2  0  0  0  0  0  0  0  0  0
  159.4650  172.8450  153.5580 C   0  0  0  0  0  0  0  0  0  0  0  0
  159.5260  172.8480  152.3230 O   0  0  0  0  0  0  0  0  0  0  0  0
  159.9580  170.7330  154.8140 C   0  0  0  0  0  0  0  0  0  0  0  0
  159.9040  169.8370  153.7200 O   0  0  0  0  0  0  0  0  0  0  0  0
  158.5000  173.4860  154.2210 N   0  0  0  0  0  0  0  0  0  0  0  0
  157.4780  174.2420  153.4990 C   0  0  2  0  0  0  0  0  0  0  0  0
  157.9850  175.5790  152.9880 C   0  0  0  0  0  0  0  0  0  0  0  0
  157.3080  176.2070  152.1640 O   0  0  0  0  0  0  0  0  0  0  0  0
  156.2350  174.4900  154.3730 C   0  0  2  0  0  0  0  0  0  0  0  0
  154.9890  174.6080  153.4970 C   0  0  0  0  0  0  0  0  0  0  0  0
  156.3970  175.7490  155.2130 C   0  0  0  0  0  0  0  0  0  0  0  0
  153.7000  174.5840  154.2780 C   0  0  0  0  0  0  0  0  0  0  0  0
  159.1470  176.0360  153.4500 N   0  0  0  0  0  0  0  0  0  0  0  0
  159.6450  177.3620  153.1050 C   0  0  2  0  0  0  0  0  0  0  0  0
  160.9610  177.3210  152.3470 C   0  0  0  0  0  0  0  0  0  0  0  0
  161.0610  177.9130  151.2660 O   0  0  0  0  0  0  0  0  0  0  0  0
  159.8030  178.2000  154.3840 C   0  0  2  0  0  0  0  0  0  0  0  0
  158.5670  178.1990  155.1090 O   0  0  0  0  0  0  0  0  0  0  0  0
  160.1760  179.6330  154.0520 C   0  0  0  0  0  0  0  0  0  0  0  0
  162.3310  173.5090  149.8230 N   0  0  0  0  0  0  0  0  0  0  0  0
  161.4770  173.1250  148.7040 C   0  0  2  0  0  0  0  0  0  0  0  0
  162.2880  172.8530  147.4440 C   0  0  0  0  0  0  0  0  0  0  0  0
  161.9540  171.9530  146.6650 O   0  0  0  0  0  0  0  0  0  0  0  0
  160.4390  174.2160  148.4380 C   0  0  2  0  0  0  0  0  0  0  0  0
  159.5850  173.8140  147.3610 O   0  0  0  0  0  0  0  0  0  0  0  0
  161.1130  175.5350  148.0850 C   0  0  0  0  0  0  0  0  0  0  0  0
  166.9300  166.2470  146.9100 N   0  0  0  0  0  0  0  0  0  0  0  0
  166.5790  165.3080  147.9690 C   0  0  2  0  0  0  0  0  0  0  0  0
  167.8240  164.7670  148.6590 C   0  0  0  0  0  0  0  0  0  0  0  0
  167.8330  164.5790  149.8810 O   0  0  0  0  0  0  0  0  0  0  0  0
  165.7400  164.1680  147.3970 C   0  0  0  0  0  0  0  0  0  0  0  0
  164.5720  164.6650  146.7690 O   0  0  0  0  0  0  0  0  0  0  0  0
  169.2480  167.2820  151.4120 N   0  0  0  0  0  0  0  0  0  0  0  0
  168.4780  167.3530  152.6480 C   0  0  2  0  0  0  0  0  0  0  0  0
  168.5160  166.0320  153.4020 C   0  0  0  0  0  0  0  0  0  0  0  0
  168.4810  166.0240  154.6370 O   0  0  0  0  0  0  0  0  0  0  0  0
  167.0330  167.7720  152.3700 C   0  0  0  0  0  0  0  0  0  0  0  0
  166.2900  166.9510  151.3350 C   0  0  0  0  0  0  0  0  0  0  0  0
  164.8220  167.3630  151.3070 C   0  0  0  0  0  0  0  0  0  0  0  0
  164.1350  166.9610  150.0160 C   0  0  0  0  0  0  0  0  0  0  0  0
  162.7090  167.3850  149.9920 N   0  0  0  0  0  0  0  0  0  0  0  0
  168.5900  164.9090  152.6860 N   0  0  0  0  0  0  0  0  0  0  0  0
  168.7590  163.6270  153.3600 C   0  0  2  0  0  0  0  0  0  0  0  0
  170.0600  163.5970  154.1510 C   0  0  0  0  0  0  0  0  0  0  0  0
  170.0870  163.1510  155.3030 O   0  0  0  0  0  0  0  0  0  0  0  0
  168.7250  162.4900  152.3400 C   0  0  0  0  0  0  0  0  0  0  0  0
  168.4570  161.1130  152.9370 C   0  0  0  0  0  0  0  0  0  0  0  0
  167.0290  160.9600  153.4520 C   0  0  0  0  0  0  0  0  0  0  0  0
  166.0160  160.9120  152.3180 C   0  0  0  0  0  0  0  0  0  0  0  0
  164.6200  160.8070  152.8250 N   0  0  0  0  0  0  0  0  0  0  0  0
  169.7360  165.7950  157.2800 N   0  0  0  0  0  0  0  0  0  0  0  0
  168.9490  165.1480  158.3240 C   0  0  2  0  0  0  0  0  0  0  0  0
  169.7630  164.0850  159.0500 C   0  0  0  0  0  0  0  0  0  0  0  0
  169.6590  163.9390  160.2730 O   0  0  0  0  0  0  0  0  0  0  0  0
  167.6820  164.5450  157.7210 C   0  0  0  0  0  0  0  0  0  0  0  0
  166.5540  165.5500  157.5660 C   0  0  0  0  0  0  0  0  0  0  0  0
  165.6100  165.1780  156.4370 C   0  0  0  0  0  0  0  0  0  0  0  0
  164.6030  166.2090  156.2170 N   0  0  0  0  0  0  0  0  0  0  0  0
  163.6770  166.1660  155.2690 C   0  0  0  0  0  0  0  0  0  0  0  0
  163.5960  165.1480  154.4270 N   0  0  0  0  0  0  0  0  0  0  0  0
  162.8100  167.1680  155.1640 N   0  0  0  0  0  0  0  0  0  0  0  0
  154.5310  178.3070  161.1680 N   0  0  0  0  0  0  0  0  0  0  0  0
  153.9900  177.3940  160.1690 C   0  0  2  0  0  0  0  0  0  0  0  0
  152.5100  177.6590  159.9350 C   0  0  0  0  0  0  0  0  0  0  0  0
  152.0400  177.6320  158.7920 O   0  0  0  0  0  0  0  0  0  0  0  0
  154.2070  175.9460  160.6040 C   0  0  0  0  0  0  0  0  0  0  0  0
  153.9550  174.9000  159.5180 C   0  0  0  0  0  0  0  0  0  0  0  0
  155.2090  174.6740  158.6960 C   0  0  0  0  0  0  0  0  0  0  0  0
  153.4720  173.5970  160.1270 C   0  0  0  0  0  0  0  0  0  0  0  0
  151.1620  178.5660  156.2600 N   0  0  0  0  0  0  0  0  0  0  0  0
  150.1900  177.7150  155.5820 C   0  0  2  0  0  0  0  0  0  0  0  0
  148.8960  178.4770  155.3340 C   0  0  0  0  0  0  0  0  0  0  0  0
  148.2300  178.2800  154.3110 O   0  0  0  0  0  0  0  0  0  0  0  0
  149.9500  176.4270  156.3900 C   0  0  2  0  0  0  0  0  0  0  0  0
  149.1680  175.4170  155.5520 C   0  0  0  0  0  0  0  0  0  0  0  0
  149.2070  176.7250  157.6800 C   0  0  0  0  0  0  0  0  0  0  0  0
  149.1300  174.0340  156.1540 C   0  0  0  0  0  0  0  0  0  0  0  0
  146.3490  177.1050  148.3840 N   0  0  0  0  0  0  0  0  0  0  0  0
  146.2250  175.6880  148.0600 C   0  0  2  0  0  0  0  0  0  0  0  0
  146.4560  174.8110  149.2850 C   0  0  0  0  0  0  0  0  0  0  0  0
  145.7260  173.8370  149.5030 O   0  0  0  0  0  0  0  0  0  0  0  0
  147.2080  175.3200  146.9500 C   0  0  0  0  0  0  0  0  0  0  0  0
  146.9160  173.9640  146.3400 C   0  0  0  0  0  0  0  0  0  0  0  0
  145.7580  173.5080  146.4270 O   0  0  0  0  0  0  0  0  0  0  0  0
  147.8460  173.3530  145.7730 O   0  0  0  0  0  0  0  0  0  0  0  0
  147.4660  175.1370  150.0950 N   0  0  0  0  0  0  0  0  0  0  0  0
  147.8580  174.2390  151.1760 C   0  0  2  0  0  0  0  0  0  0  0  0
  146.7630  174.0950  152.2240 C   0  0  0  0  0  0  0  0  0  0  0  0
  146.6230  173.0240  152.8260 O   0  0  0  0  0  0  0  0  0  0  0  0
  149.1440  174.7430  151.8310 C   0  0  0  0  0  0  0  0  0  0  0  0
  150.3990  174.5200  151.0030 C   0  0  0  0  0  0  0  0  0  0  0  0
  150.6510  173.0580  150.6990 C   0  0  0  0  0  0  0  0  0  0  0  0
  150.5150  172.1980  151.5680 O   0  0  0  0  0  0  0  0  0  0  0  0
  151.0210  172.7680  149.4580 N   0  0  0  0  0  0  0  0  0  0  0  0
  143.8620  170.9890  151.9870 N   0  0  0  0  0  0  0  0  0  0  0  0
  144.2020  169.5970  152.2590 C   0  0  2  0  0  0  0  0  0  0  0  0
  144.6260  169.4020  153.7090 C   0  0  0  0  0  0  0  0  0  0  0  0
  144.2150  168.4320  154.3560 O   0  0  0  0  0  0  0  0  0  0  0  0
  145.3030  169.1340  151.3080 C   0  0  0  0  0  0  0  0  0  0  0  0
  144.9780  169.3490  149.8630 C   0  0  0  0  0  0  0  0  0  0  0  0
  145.2630  170.5240  149.2030 N   0  0  0  0  0  0  0  0  0  0  0  0
  144.3870  168.5400  148.9530 C   0  0  0  0  0  0  0  0  0  0  0  0
  144.8640  170.4300  147.9480 C   0  0  0  0  0  0  0  0  0  0  0  0
  144.3290  169.2360  147.7700 N   0  0  0  0  0  0  0  0  0  0  0  0
  145.4420  170.3100  154.2370 N   0  0  0  0  0  0  0  0  0  0  0  0
  145.8800  170.2200  155.6200 C   0  0  2  0  0  0  0  0  0  0  0  0
  144.8120  170.8000  156.5430 C   0  0  0  0  0  0  0  0  0  0  0  0
  143.7240  171.1930  156.1130 O   0  0  0  0  0  0  0  0  0  0  0  0
  147.2110  170.9430  155.8020 C   0  0  0  0  0  0  0  0  0  0  0  0
  147.4720  171.1860  157.1730 O   0  0  0  0  0  0  0  0  0  0  0  0
  145.1260  170.8540  157.8360 N   0  0  0  0  0  0  0  0  0  0  0  0
  144.2180  171.3940  158.8350 C   0  0  2  0  0  0  0  0  0  0  0  0
  144.9910  172.3090  159.7710 C   0  0  0  0  0  0  0  0  0  0  0  0
  146.2020  172.1580  159.9490 O   0  0  0  0  0  0  0  0  0  0  0  0
  143.5350  170.2820  159.6390 C   0  0  0  0  0  0  0  0  0  0  0  0
  142.7080  170.8260  160.6530 O   0  0  0  0  0  0  0  0  0  0  0  0
  147.9840  171.4460  164.1050 N   0  0  0  0  0  0  0  0  0  0  0  0
  149.2030  172.2250  164.3040 C   0  0  2  0  0  0  0  0  0  0  0  0
  149.2570  172.7710  165.7250 C   0  0  0  0  0  0  0  0  0  0  0  0
  150.2940  172.7120  166.3940 O   0  0  0  0  0  0  0  0  0  0  0  0
  149.2940  173.3570  163.2650 C   0  0  2  0  0  0  0  0  0  0  0  0
  149.1130  172.8080  161.8460 C   0  0  0  0  0  0  0  0  0  0  0  0
  150.6230  174.0740  163.3880 C   0  0  0  0  0  0  0  0  0  0  0  0
  150.0340  171.6560  161.5050 C   0  0  0  0  0  0  0  0  0  0  0  0
  152.0130  161.8480  165.8090 N   0  0  0  0  0  0  0  0  0  0  0  0
  152.9500  162.1940  164.7490 C   0  0  2  0  0  0  0  0  0  0  0  0
  152.8780  161.2710  163.5420 C   0  0  0  0  0  0  0  0  0  0  0  0
  153.3180  161.6680  162.4580 O   0  0  0  0  0  0  0  0  0  0  0  0
  154.3780  162.1930  165.2980 C   0  0  0  0  0  0  0  0  0  0  0  0
  154.8510  163.5650  165.7060 C   0  0  0  0  0  0  0  0  0  0  0  0
  154.4820  164.1080  166.9270 C   0  0  0  0  0  0  0  0  0  0  0  0
  155.6540  164.3220  164.8690 C   0  0  0  0  0  0  0  0  0  0  0  0
  154.9040  165.3620  167.3060 C   0  0  0  0  0  0  0  0  0  0  0  0
  156.0810  165.5780  165.2400 C   0  0  0  0  0  0  0  0  0  0  0  0
  155.7040  166.0920  166.4600 C   0  0  0  0  0  0  0  0  0  0  0  0
  156.1270  167.3440  166.8370 O   0  0  0  0  0  0  0  0  0  0  0  0
  152.3440  160.0620  163.6920 N   0  0  0  0  0  0  0  0  0  0  0  0
  152.2820  159.1130  162.5870 C   0  0  2  0  0  0  0  0  0  0  0  0
  150.8650  158.6780  162.2540 C   0  0  0  0  0  0  0  0  0  0  0  0
  150.4800  158.6930  161.0790 O   0  0  0  0  0  0  0  0  0  0  0  0
  153.1370  157.8800  162.9110 C   0  0  0  0  0  0  0  0  0  0  0  0
  152.8410  156.8160  162.0250 O   0  0  0  0  0  0  0  0  0  0  0  0
  148.5080  160.7600  159.7810 N   0  0  0  0  0  0  0  0  0  0  0  0
  148.7840  160.8700  158.3540 C   0  0  2  0  0  0  0  0  0  0  0  0
  147.9960  159.8260  157.5750 C   0  0  0  0  0  0  0  0  0  0  0  0
  148.0300  158.6350  157.8960 O   0  0  0  0  0  0  0  0  0  0  0  0
  150.2790  160.7010  158.0920 C   0  0  0  0  0  0  0  0  0  0  0  0
  151.0680  161.9530  158.4050 C   0  0  0  0  0  0  0  0  0  0  0  0
  150.6450  162.7800  159.2110 O   0  0  0  0  0  0  0  0  0  0  0  0
  152.2220  162.1000  157.7660 N   0  0  0  0  0  0  0  0  0  0  0  0
  147.2840  160.2800  156.5410 N   0  0  0  0  0  0  0  0  0  0  0  0
  146.5040  159.3540  155.7260 C   0  0  2  0  0  0  0  0  0  0  0  0
  147.4010  158.3350  155.0370 C   0  0  0  0  0  0  0  0  0  0  0  0
  147.0590  157.1490  154.9570 O   0  0  0  0  0  0  0  0  0  0  0  0
  145.6790  160.1250  154.6950 C   0  0  0  0  0  0  0  0  0  0  0  0
  144.7550  161.1760  155.2950 C   0  0  0  0  0  0  0  0  0  0  0  0
  144.3100  162.2050  154.2620 C   0  0  0  0  0  0  0  0  0  0  0  0
  144.2140  161.6570  152.9130 N   0  0  0  0  0  0  0  0  0  0  0  0
  143.4040  160.6700  152.5540 C   0  0  0  0  0  0  0  0  0  0  0  0
  142.5760  160.1030  153.4170 N   0  0  0  0  0  0  0  0  0  0  0  0
  143.4220  160.2430  151.2950 N   0  0  0  0  0  0  0  0  0  0  0  0
  148.5530  158.7770  154.5290 N   0  0  0  0  0  0  0  0  0  0  0  0
  149.4780  157.8480  153.8900 C   0  0  2  0  0  0  0  0  0  0  0  0
  149.9060  156.7460  154.8500 C   0  0  0  0  0  0  0  0  0  0  0  0
  149.9630  155.5700  154.4720 O   0  0  0  0  0  0  0  0  0  0  0  0
  150.7000  158.6000  153.3670 C   0  0  0  0  0  0  0  0  0  0  0  0
  150.4690  159.2110  152.0020 C   0  0  0  0  0  0  0  0  0  0  0  0
  149.6380  158.7380  151.2290 O   0  0  0  0  0  0  0  0  0  0  0  0
  151.2120  160.2660  151.6950 N   0  0  0  0  0  0  0  0  0  0  0  0
  150.2080  157.1030  156.1000 N   0  0  0  0  0  0  0  0  0  0  0  0
  150.6230  156.0920  157.0650 C   0  0  2  0  0  0  0  0  0  0  0  0
  149.5190  155.0740  157.3100 C   0  0  0  0  0  0  0  0  0  0  0  0
  149.7770  153.8660  157.3470 O   0  0  0  0  0  0  0  0  0  0  0  0
  151.0340  156.7530  158.3780 C   0  0  0  0  0  0  0  0  0  0  0  0
  151.3990  155.7600  159.4560 C   0  0  0  0  0  0  0  0  0  0  0  0
  152.5940  155.0600  159.4060 C   0  0  0  0  0  0  0  0  0  0  0  0
  150.5440  155.5200  160.5210 C   0  0  0  0  0  0  0  0  0  0  0  0
  152.9280  154.1510  160.3870 C   0  0  0  0  0  0  0  0  0  0  0  0
  150.8710  154.6140  161.5060 C   0  0  0  0  0  0  0  0  0  0  0  0
  152.0630  153.9320  161.4340 C   0  0  0  0  0  0  0  0  0  0  0  0
  152.3920  153.0270  162.4150 O   0  0  0  0  0  0  0  0  0  0  0  0
  149.2710  152.9030  154.2800 N   0  0  0  0  0  0  0  0  0  0  0  0
  150.4470  152.0440  154.2050 C   0  0  2  0  0  0  0  0  0  0  0  0
  150.3500  150.9040  155.2080 C   0  0  0  0  0  0  0  0  0  0  0  0
  150.6730  149.7540  154.8890 O   0  0  0  0  0  0  0  0  0  0  0  0
  151.7110  152.8710  154.4470 C   0  0  0  0  0  0  0  0  0  0  0  0
  152.9770  152.0490  154.6130 C   0  0  0  0  0  0  0  0  0  0  0  0
  153.0910  150.9380  153.5920 C   0  0  0  0  0  0  0  0  0  0  0  0
  153.0860  151.2400  152.3810 O   0  0  0  0  0  0  0  0  0  0  0  0
  153.1870  149.7620  154.0000 O   0  0  0  0  0  0  0  0  0  0  0  0
  2  1  1  1
  3  2  1  0
  4  3  2  0
  5  2  1  0
  6  5  1  0
  7  5  1  0
  9  8  1  1
 10  9  1  0
 11 10  2  0
 12  9  1  0
 13 12  1  0
 14 12  1  0
 15 10  1  0
 16 15  1  0
 17 16  1  0
 18 17  2  0
 16 19  1  1
 20 19  1  0
 21 20  2  0
 22 20  1  0
 23 17  1  0
 24 23  1  1
 25 24  1  0
 26 25  2  0
 27 24  1  0
 28 27  1  0
 27 29  1  6
 30 28  1  0
 32 31  1  0
 33 32  1  0
 34 33  2  0
 32 35  1  1
 37 36  1  0
 38 37  1  0
 39 38  2  0
 40 38  1  0
 41 40  1  0
 42 41  1  0
 43 42  2  0
 41 44  1  1
 45 44  1  0
 46 45  2  0
 47 45  1  0
 48 46  1  0
 49 47  2  0
 50 49  1  0
 50 48  2  0
 51 50  1  0
 52 42  1  0
 53 52  1  0
 54 53  1  0
 55 54  2  0
 53 56  1  6
 57 56  1  0
 58 57  2  0
 59 57  1  0
 60 54  1  0
 61 60  1  6
 62 61  1  0
 63 62  2  0
 64 61  1  0
 65 64  1  0
 64 66  1  6
 67 62  1  0
 68 67  1  0
 69 68  1  0
 70 69  2  0
 68 71  1  1
 72 71  1  0
 73 72  1  0
 74 72  2  0
 75 73  2  0
 76 74  1  0
 76 75  1  0
 78 77  1  6
 79 78  1  0
 80 79  2  0
 81 78  1  0
 82 81  1  0
 83 82  2  0
 84 82  1  0
 85 83  1  0
 86 84  2  0
 87 86  1  0
 87 85  2  0
 88 87  1  0
 89 79  1  0
 90 89  1  6
 91 90  1  0
 92 91  2  0
 93 90  1  0
 94 93  1  0
 93 95  1  1
 96 94  1  0
 98 97  1  1
 99 98  1  0
100 99  2  0
101 98  1  0
102101  1  0
103102  1  0
104103  1  0
105 99  1  0
106105  1  0
107106  1  0
108107  2  0
106109  1  1
110109  1  0
112111  1  1
113112  1  0
114113  2  0
115112  1  0
116115  1  0
117116  2  0
118116  1  0
119113  1  0
120119  1  0
121120  1  0
122121  2  0
120123  1  1
124123  1  0
125124  1  0
126125  1  0
127126  1  0
128127  1  0
129127  2  0
130121  1  0
131130  1  0
132131  1  0
133132  2  0
131134  1  1
135134  1  0
136135  2  0
137135  1  0
138136  1  0
139137  2  0
140139  1  0
140138  2  0
141140  1  0
143142  1  1
144143  1  0
145144  2  0
146143  1  0
147146  1  0
148144  1  0
149148  1  1
150149  1  0
151150  2  0
152149  1  0
153152  1  0
152154  1  6
155153  1  0
156150  1  0
157156  1  1
158157  1  0
159158  2  0
160157  1  0
161160  1  0
160162  1  6
164163  1  1
165164  1  0
166165  2  0
167164  1  0
168167  1  0
167169  1  6
171170  1  6
172171  1  0
173172  2  0
174171  1  0
175174  1  0
177176  1  6
178177  1  0
179178  2  0
180177  1  0
181180  1  0
182181  1  0
183182  1  0
184183  1  0
185178  1  0
186185  1  0
187186  1  0
188187  2  0
186189  1  6
190189  1  0
191190  1  0
192191  1  0
193192  1  0
195194  1  6
196195  1  0
197196  2  0
198195  1  0
199198  1  0
200199  1  0
201200  1  0
202201  1  0
203202  1  0
204202  2  0
206205  1  1
207206  1  0
208207  2  0
209206  1  0
210209  1  0
211210  1  0
212210  1  0
214213  1  1
215214  1  0
216215  2  0
217214  1  0
218217  1  0
217219  1  1
220218  1  0
222221  1  1
223222  1  0
224223  2  0
225222  1  0
226225  1  0
227226  2  0
228226  1  0
229223  1  0
230229  1  0
231230  1  0
232231  2  0
230233  1  1
234233  1  0
235234  1  0
236235  2  0
237235  1  0
239238  1  1
240239  1  0
241240  2  0
242239  1  0
243242  1  0
244243  1  0
245243  2  0
246244  2  0
247245  1  0
247246  1  0
248240  1  0
249248  1  0
250249  1  0
251250  2  0
249252  1  6
253252  1  0
254250  1  0
255254  1  0
256255  1  0
257256  2  0
255258  1  1
259258  1  0
261260  1  1
262261  1  0
263262  2  0
264261  1  0
265264  1  0
264266  1  6
267265  1  0
269268  1  1
270269  1  0
271270  2  0
272269  1  0
273272  1  0
274273  2  0
275273  1  0
276274  1  0
277275  2  0
278277  1  0
278276  2  0
279278  1  0
280270  1  0
281280  1  0
282281  1  0
283282  2  0
281284  1  1
285284  1  0
287286  1  1
288287  1  0
289288  2  0
290287  1  0
291290  1  0
292291  2  0
293291  1  0
294288  1  0
295294  1  0
296295  1  0
297296  2  0
295298  1  6
299298  1  0
300299  1  0
301300  1  0
302301  1  0
303302  1  0
304302  2  0
305296  1  0
306305  1  0
307306  1  0
308307  2  0
306309  1  1
310309  1  0
311310  2  0
312310  1  0
313307  1  0
314313  1  0
315314  1  0
316315  2  0
314317  1  1
318317  1  0
319318  2  0
320318  1  0
321319  1  0
322320  2  0
323322  1  0
323321  2  0
324323  1  0
326325  1  1
327326  1  0
328327  2  0
329326  1  0
330329  1  0
331330  1  0
332331  2  0
333331  1  0
M  END
$$$$
