
     RDKit          3D

346336  0  0  0  0  0  0  0  0999 V2000
  174.2230  161.7480  177.3230 N   0  0  0  0  0  0  0  0  0  0  0  0
  174.3070  162.9710  176.5450 C   0  0  2  0  0  0  0  0  0  0  0  0
  175.6700  163.1260  175.9170 C   0  0  0  0  0  0  0  0  0  0  0  0
  175.7550  163.4460  174.7350 O   0  0  0  0  0  0  0  0  0  0  0  0
  173.8960  164.2240  177.3180 C   0  0  0  0  0  0  0  0  0  0  0  0
  174.2630  165.5280  176.5690 C   0  0  0  0  0  0  0  0  0  0  0  0
  172.3700  164.1750  177.5340 C   0  0  0  0  0  0  0  0  0  0  0  0
  176.1170  160.5020  173.0180 N   0  0  0  0  0  0  0  0  0  0  0  0
  175.2570  160.8520  171.9080 C   0  0  2  0  0  0  0  0  0  0  0  0
  175.7950  162.0540  171.1770 C   0  0  0  0  0  0  0  0  0  0  0  0
  175.7330  162.1070  169.9530 O   0  0  0  0  0  0  0  0  0  0  0  0
  173.8120  161.0610  172.3610 C   0  0  0  0  0  0  0  0  0  0  0  0
  172.9340  161.6770  171.2520 C   0  0  0  0  0  0  0  0  0  0  0  0
  173.2340  159.6930  172.7760 C   0  0  0  0  0  0  0  0  0  0  0  0
  176.3570  163.0340  171.9220 N   0  0  0  0  0  0  0  0  0  0  0  0
  176.9890  164.2300  171.4120 C   0  0  2  0  0  0  0  0  0  0  0  0
  178.1780  163.8990  170.5290 C   0  0  0  0  0  0  0  0  0  0  0  0
  178.3520  164.4940  169.4660 O   0  0  0  0  0  0  0  0  0  0  0  0
  177.3650  165.1870  172.5780 C   0  0  0  0  0  0  0  0  0  0  0  0
  177.8680  166.5590  172.1010 C   0  0  0  0  0  0  0  0  0  0  0  0
  178.9560  166.6720  171.5280 O   0  0  0  0  0  0  0  0  0  0  0  0
  177.0580  167.6250  172.3810 N   0  0  0  0  0  0  0  0  0  0  0  0
  176.9450  162.2400  167.2850 N   0  0  0  0  0  0  0  0  0  0  0  0
  176.1850  163.1110  166.4230 C   0  0  2  0  0  0  0  0  0  0  0  0
  177.0930  163.8370  165.4700 C   0  0  0  0  0  0  0  0  0  0  0  0
  176.7300  164.0320  164.3130 O   0  0  0  0  0  0  0  0  0  0  0  0
  175.3800  164.1510  167.2200 C   0  0  0  0  0  0  0  0  0  0  0  0
  177.6100  161.7960  162.4130 N   0  0  0  0  0  0  0  0  0  0  0  0
  176.4430  161.8410  161.5470 C   0  0  2  0  0  0  0  0  0  0  0  0
  176.4970  163.0420  160.6200 C   0  0  0  0  0  0  0  0  0  0  0  0
  175.8930  163.0340  159.5480 O   0  0  0  0  0  0  0  0  0  0  0  0
  175.1470  161.8690  162.3560 C   0  0  2  0  0  0  0  0  0  0  0  0
  175.1950  160.8650  163.3630 O   0  0  0  0  0  0  0  0  0  0  0  0
  173.9020  161.6430  161.4690 C   0  0  0  0  0  0  0  0  0  0  0  0
  177.2850  164.0770  160.9890 N   0  0  0  0  0  0  0  0  0  0  0  0
  177.5150  165.2420  160.1750 C   0  0  0  0  0  0  0  0  0  0  0  0
  176.7440  166.4020  160.7090 C   0  0  0  0  0  0  0  0  0  0  0  0
  176.6780  167.4460  160.0680 O   0  0  0  0  0  0  0  0  0  0  0  0
  176.1750  166.2640  161.9300 N   0  0  0  0  0  0  0  0  0  0  0  0
  175.4620  167.3190  162.6130 C   0  0  2  0  0  0  0  0  0  0  0  0
  176.4150  168.4210  162.9820 C   0  0  0  0  0  0  0  0  0  0  0  0
  177.5850  168.1740  163.2700 O   0  0  0  0  0  0  0  0  0  0  0  0
  174.7520  166.8950  163.9340 C   0  0  0  0  0  0  0  0  0  0  0  0
  173.5000  166.0620  163.7970 C   0  0  0  0  0  0  0  0  0  0  0  0
  173.0980  165.4020  162.6200 C   0  0  0  0  0  0  0  0  0  0  0  0
  172.6860  165.9450  164.9380 C   0  0  0  0  0  0  0  0  0  0  0  0
  171.9030  164.6700  162.5830 C   0  0  0  0  0  0  0  0  0  0  0  0
  171.5000  165.2090  164.9070 C   0  0  0  0  0  0  0  0  0  0  0  0
  171.0970  164.5820  163.7240 C   0  0  0  0  0  0  0  0  0  0  0  0
  169.8780  163.8720  163.6850 O   0  0  0  0  0  0  0  0  0  0  0  0
  175.8790  169.6580  163.0680 N   0  0  0  0  0  0  0  0  0  0  0  0
  176.5500  170.7700  163.6850 C   0  0  2  0  0  0  0  0  0  0  0  0
  176.1750  170.6090  165.1320 C   0  0  0  0  0  0  0  0  0  0  0  0
  175.1210  171.0680  165.5700 O   0  0  0  0  0  0  0  0  0  0  0  0
  176.0800  172.1450  163.1360 C   0  0  0  0  0  0  0  0  0  0  0  0
  176.7660  173.3440  163.8060 C   0  0  0  0  0  0  0  0  0  0  0  0
  177.6990  173.1400  164.6260 O   0  0  0  0  0  0  0  0  0  0  0  0
  176.3700  174.4930  163.4740 O   0  0  0  0  0  0  0  0  0  0  0  0
  177.0200  169.8710  165.8820 N   0  0  0  0  0  0  0  0  0  0  0  0
  176.7380  169.5110  167.2440 C   0  0  2  0  0  0  0  0  0  0  0  0
  177.4430  170.5250  168.0780 C   0  0  0  0  0  0  0  0  0  0  0  0
  178.6370  170.7660  167.9090 O   0  0  0  0  0  0  0  0  0  0  0  0
  177.2170  168.1220  167.6150 C   0  0  2  0  0  0  0  0  0  0  0  0
  176.8230  167.1880  166.6200 O   0  0  0  0  0  0  0  0  0  0  0  0
  176.6330  167.7140  168.9790 C   0  0  0  0  0  0  0  0  0  0  0  0
  176.6870  171.1500  169.0020 N   0  0  0  0  0  0  0  0  0  0  0  0
  177.1750  172.2070  169.8430 C   0  0  2  0  0  0  0  0  0  0  0  0
  178.1920  171.6890  170.8060 C   0  0  0  0  0  0  0  0  0  0  0  0
  177.9850  170.6740  171.4700 O   0  0  0  0  0  0  0  0  0  0  0  0
  176.0670  172.9530  170.6150 C   0  0  0  0  0  0  0  0  0  0  0  0
  175.2250  173.8280  169.7360 C   0  0  0  0  0  0  0  0  0  0  0  0
  174.6670  175.0310  170.1110 N   0  0  0  0  0  0  0  0  0  0  0  0
  174.9250  173.6780  168.4180 C   0  0  0  0  0  0  0  0  0  0  0  0
  174.0680  175.5430  169.0110 C   0  0  0  0  0  0  0  0  0  0  0  0
  174.2010  174.7610  167.9600 N   0  0  0  0  0  0  0  0  0  0  0  0
  178.9460  173.4220  173.4380 N   0  0  0  0  0  0  0  0  0  0  0  0
  178.3510  173.8310  174.6900 C   0  0  2  0  0  0  0  0  0  0  0  0
  177.5890  172.7280  175.3640 C   0  0  0  0  0  0  0  0  0  0  0  0
  177.6900  172.5750  176.5760 O   0  0  0  0  0  0  0  0  0  0  0  0
  177.3710  175.0260  174.5370 C   0  0  0  0  0  0  0  0  0  0  0  0
  177.9790  176.2280  173.8590 C   0  0  0  0  0  0  0  0  0  0  0  0
  179.3530  176.5290  173.9290 C   0  0  0  0  0  0  0  0  0  0  0  0
  177.1320  177.1120  173.1660 C   0  0  0  0  0  0  0  0  0  0  0  0
  179.8680  177.6620  173.2910 C   0  0  0  0  0  0  0  0  0  0  0  0
  177.6430  178.2550  172.5430 C   0  0  0  0  0  0  0  0  0  0  0  0
  179.0140  178.5300  172.5990 C   0  0  0  0  0  0  0  0  0  0  0  0
  179.5240  179.6830  171.9620 O   0  0  0  0  0  0  0  0  0  0  0  0
  176.8120  171.9370  174.5870 N   0  0  0  0  0  0  0  0  0  0  0  0
  176.0240  170.8250  175.0730 C   0  0  2  0  0  0  0  0  0  0  0  0
  176.8910  169.7530  175.6810 C   0  0  0  0  0  0  0  0  0  0  0  0
  176.5940  169.2380  176.7590 O   0  0  0  0  0  0  0  0  0  0  0  0
  175.0440  170.3010  174.0330 C   0  0  2  0  0  0  0  0  0  0  0  0
  174.0390  171.4350  173.6940 C   0  0  0  0  0  0  0  0  0  0  0  0
  174.3350  169.0330  174.5590 C   0  0  0  0  0  0  0  0  0  0  0  0
  172.9600  171.0460  172.6820 C   0  0  0  0  0  0  0  0  0  0  0  0
  175.3100  180.6170  178.0350 N   0  0  0  0  0  0  0  0  0  0  0  0
  175.8460  180.6360  176.6890 C   0  0  2  0  0  0  0  0  0  0  0  0
  174.8380  180.1900  175.6720 C   0  0  0  0  0  0  0  0  0  0  0  0
  174.7340  180.7830  174.6030 O   0  0  0  0  0  0  0  0  0  0  0  0
  177.1330  179.7970  176.5200 C   0  0  0  0  0  0  0  0  0  0  0  0
  178.4950  180.4730  177.5110 S   0  0  0  0  0  0  0  0  0  0  0  0
  174.0960  179.1060  175.9860 N   0  0  0  0  0  0  0  0  0  0  0  0
  173.0830  178.5380  175.1300 C   0  0  2  0  0  0  0  0  0  0  0  0
  171.9050  179.4440  174.9040 C   0  0  0  0  0  0  0  0  0  0  0  0
  171.3690  179.4950  173.7990 O   0  0  0  0  0  0  0  0  0  0  0  0
  172.5370  177.2370  175.7420 C   0  0  0  0  0  0  0  0  0  0  0  0
  173.5720  176.1090  175.7680 C   0  0  0  0  0  0  0  0  0  0  0  0
  173.0610  174.7480  176.8500 S   0  0  0  0  0  0  0  0  0  0  0  0
  174.5860  173.8230  176.5720 C   0  0  0  0  0  0  0  0  0  0  0  0
  171.4940  180.1940  175.9540 N   0  0  0  0  0  0  0  0  0  0  0  0
  170.4340  181.1750  175.8970 C   0  0  2  0  0  0  0  0  0  0  0  0
  170.7440  182.2620  174.8920 C   0  0  0  0  0  0  0  0  0  0  0  0
  169.8850  182.6480  174.1020 O   0  0  0  0  0  0  0  0  0  0  0  0
  170.1270  181.7790  177.2870 C   0  0  0  0  0  0  0  0  0  0  0  0
  169.0030  182.6480  177.2450 O   0  0  0  0  0  0  0  0  0  0  0  0
  173.0140  181.9650  172.4680 N   0  0  0  0  0  0  0  0  0  0  0  0
  173.2920  181.3140  171.2120 C   0  0  2  0  0  0  0  0  0  0  0  0
  172.0390  181.1240  170.3850 C   0  0  0  0  0  0  0  0  0  0  0  0
  172.1140  181.1570  169.1610 O   0  0  0  0  0  0  0  0  0  0  0  0
  174.0410  179.9700  171.4270 C   0  0  0  0  0  0  0  0  0  0  0  0
  174.6340  179.3440  170.1570 C   0  0  0  0  0  0  0  0  0  0  0  0
  174.7330  180.0370  169.1120 O   0  0  0  0  0  0  0  0  0  0  0  0
  175.0710  178.1660  170.2550 O   0  0  0  0  0  0  0  0  0  0  0  0
  170.8550  180.9300  171.0190 N   0  0  0  0  0  0  0  0  0  0  0  0
  169.5960  180.7990  170.3090 C   0  0  2  0  0  0  0  0  0  0  0  0
  169.2590  182.0160  169.4790 C   0  0  0  0  0  0  0  0  0  0  0  0
  168.9140  181.8990  168.3040 O   0  0  0  0  0  0  0  0  0  0  0  0
  168.4130  180.6120  171.2930 C   0  0  0  0  0  0  0  0  0  0  0  0
  168.4110  179.2880  172.0780 C   0  0  0  0  0  0  0  0  0  0  0  0
  167.4040  178.2670  171.5270 C   0  0  0  0  0  0  0  0  0  0  0  0
  167.3430  177.1020  172.4670 N   0  0  0  0  0  0  0  0  0  0  0  0
  166.5030  176.0500  172.2860 C   0  0  0  0  0  0  0  0  0  0  0  0
  165.6540  175.9960  171.2320 N   0  0  0  0  0  0  0  0  0  0  0  0
  166.5270  175.0290  173.1780 N   0  0  0  0  0  0  0  0  0  0  0  0
  169.3740  183.2160  170.1000 N   0  0  0  0  0  0  0  0  0  0  0  0
  169.0980  184.4850  169.4740 C   0  0  2  0  0  0  0  0  0  0  0  0
  170.0930  184.8030  168.3850 C   0  0  0  0  0  0  0  0  0  0  0  0
  169.7240  185.2940  167.3210 O   0  0  0  0  0  0  0  0  0  0  0  0
  169.0160  185.6370  170.5060 C   0  0  0  0  0  0  0  0  0  0  0  0
  168.5140  186.9080  169.8630 C   0  0  0  0  0  0  0  0  0  0  0  0
  167.1800  186.9880  169.4300 C   0  0  0  0  0  0  0  0  0  0  0  0
  169.3580  188.0170  169.6800 C   0  0  0  0  0  0  0  0  0  0  0  0
  166.7000  188.1460  168.8090 C   0  0  0  0  0  0  0  0  0  0  0  0
  168.8800  189.1790  169.0610 C   0  0  0  0  0  0  0  0  0  0  0  0
  167.5490  189.2450  168.6240 C   0  0  0  0  0  0  0  0  0  0  0  0
  167.0660  190.4160  167.9990 O   0  0  0  0  0  0  0  0  0  0  0  0
  171.7260  182.6060  166.6280 N   0  0  0  0  0  0  0  0  0  0  0  0
  171.5530  181.6690  165.5500 C   0  0  2  0  0  0  0  0  0  0  0  0
  170.4440  182.1100  164.6220 C   0  0  0  0  0  0  0  0  0  0  0  0
  170.5660  181.9540  163.4100 O   0  0  0  0  0  0  0  0  0  0  0  0
  171.2870  180.2420  166.0830 C   0  0  0  0  0  0  0  0  0  0  0  0
  171.3560  179.2690  165.0480 O   0  0  0  0  0  0  0  0  0  0  0  0
  169.3410  182.6910  165.1560 N   0  0  0  0  0  0  0  0  0  0  0  0
  168.2830  183.2220  164.3190 C   0  0  2  0  0  0  0  0  0  0  0  0
  168.6770  184.4670  163.5540 C   0  0  0  0  0  0  0  0  0  0  0  0
  168.2880  184.6130  162.3970 O   0  0  0  0  0  0  0  0  0  0  0  0
  166.9290  183.3580  165.0160 C   0  0  2  0  0  0  0  0  0  0  0  0
  165.8180  183.8430  164.0530 C   0  0  0  0  0  0  0  0  0  0  0  0
  167.0310  184.2260  166.2840 C   0  0  0  0  0  0  0  0  0  0  0  0
  164.4090  183.6650  164.6230 C   0  0  0  0  0  0  0  0  0  0  0  0
  169.4490  185.3990  164.1670 N   0  0  0  0  0  0  0  0  0  0  0  0
  169.7270  186.6780  163.5400 C   0  0  2  0  0  0  0  0  0  0  0  0
  171.0260  186.6680  162.7740 C   0  0  0  0  0  0  0  0  0  0  0  0
  171.0410  186.9290  161.5730 O   0  0  0  0  0  0  0  0  0  0  0  0
  169.7080  187.8660  164.5050 C   0  0  2  0  0  0  0  0  0  0  0  0
  170.5130  187.6470  165.6600 O   0  0  0  0  0  0  0  0  0  0  0  0
  168.2520  188.1400  164.9350 C   0  0  0  0  0  0  0  0  0  0  0  0
  174.0710  184.4280  162.7720 N   0  0  0  0  0  0  0  0  0  0  0  0
  174.7140  183.2860  162.1760 C   0  0  2  0  0  0  0  0  0  0  0  0
  173.7300  182.6660  161.2280 C   0  0  0  0  0  0  0  0  0  0  0  0
  172.8120  181.9670  161.6480 O   0  0  0  0  0  0  0  0  0  0  0  0
  175.1550  182.2060  163.2000 C   0  0  0  0  0  0  0  0  0  0  0  0
  176.0560  182.7550  164.2800 C   0  0  0  0  0  0  0  0  0  0  0  0
  177.2060  183.4970  163.9590 C   0  0  0  0  0  0  0  0  0  0  0  0
  175.8110  182.4540  165.6340 C   0  0  0  0  0  0  0  0  0  0  0  0
  178.0870  183.9290  164.9560 C   0  0  0  0  0  0  0  0  0  0  0  0
  176.6890  182.8850  166.6350 C   0  0  0  0  0  0  0  0  0  0  0  0
  177.8270  183.6260  166.2970 C   0  0  0  0  0  0  0  0  0  0  0  0
  173.8880  182.9450  159.9170 N   0  0  0  0  0  0  0  0  0  0  0  0
  173.1210  182.2780  158.8940 C   0  0  2  0  0  0  0  0  0  0  0  0
  173.8470  182.4960  157.5810 C   0  0  0  0  0  0  0  0  0  0  0  0
  173.6020  181.7720  156.6190 O   0  0  0  0  0  0  0  0  0  0  0  0
  171.6490  182.7250  158.8440 C   0  0  2  0  0  0  0  0  0  0  0  0
  170.9060  182.0390  157.8400 O   0  0  0  0  0  0  0  0  0  0  0  0
  171.5200  184.2520  158.6580 C   0  0  0  0  0  0  0  0  0  0  0  0
  180.7160  177.7200  158.3510 N   0  0  0  0  0  0  0  0  0  0  0  0
  180.6170  176.6290  159.3010 C   0  0  2  0  0  0  0  0  0  0  0  0
  181.8280  176.5620  160.2030 C   0  0  0  0  0  0  0  0  0  0  0  0
  181.7140  176.3770  161.4110 O   0  0  0  0  0  0  0  0  0  0  0  0
  180.4880  175.2740  158.5870 C   0  0  0  0  0  0  0  0  0  0  0  0
  179.3530  175.2580  157.7320 O   0  0  0  0  0  0  0  0  0  0  0  0
  181.8070  179.5290  162.8900 N   0  0  0  0  0  0  0  0  0  0  0  0
  180.9400  179.2780  164.0240 C   0  0  2  0  0  0  0  0  0  0  0  0
  181.4770  178.2300  164.9640 C   0  0  0  0  0  0  0  0  0  0  0  0
  181.3820  178.3950  166.1780 O   0  0  0  0  0  0  0  0  0  0  0  0
  179.4560  178.9970  163.6840 C   0  0  0  0  0  0  0  0  0  0  0  0
  179.2050  177.8780  162.6650 C   0  0  0  0  0  0  0  0  0  0  0  0
  177.7210  177.4910  162.5150 C   0  0  0  0  0  0  0  0  0  0  0  0
  176.7580  178.6570  162.2450 C   0  0  0  0  0  0  0  0  0  0  0  0
  177.1240  179.3980  161.0180 N   0  0  0  0  0  0  0  0  0  0  0  0
  182.0990  177.1480  164.4260 N   0  0  0  0  0  0  0  0  0  0  0  0
  182.7440  176.1270  165.2270 C   0  0  2  0  0  0  0  0  0  0  0  0
  183.8840  176.6900  166.0270 C   0  0  0  0  0  0  0  0  0  0  0  0
  184.0430  176.3540  167.1970 O   0  0  0  0  0  0  0  0  0  0  0  0
  183.2360  174.8930  164.4300 C   0  0  0  0  0  0  0  0  0  0  0  0
  182.1090  174.0080  163.8600 C   0  0  0  0  0  0  0  0  0  0  0  0
  181.0380  173.5500  164.8710 C   0  0  0  0  0  0  0  0  0  0  0  0
  181.5570  172.8050  166.1090 C   0  0  0  0  0  0  0  0  0  0  0  0
  182.2160  171.5320  165.7360 N   0  0  0  0  0  0  0  0  0  0  0  0
  182.5040  178.6690  168.9870 N   0  0  0  0  0  0  0  0  0  0  0  0
  182.0950  177.7590  170.0360 C   0  0  2  0  0  0  0  0  0  0  0  0
  183.2540  177.2580  170.8630 C   0  0  0  0  0  0  0  0  0  0  0  0
  183.1720  177.2230  172.0870 O   0  0  0  0  0  0  0  0  0  0  0  0
  181.3030  176.5310  169.5330 C   0  0  0  0  0  0  0  0  0  0  0  0
  179.9060  176.8520  168.9820 C   0  0  0  0  0  0  0  0  0  0  0  0
  179.1100  175.5690  168.6840 C   0  0  0  0  0  0  0  0  0  0  0  0
  177.7590  175.9150  168.1360 N   0  0  0  0  0  0  0  0  0  0  0  0
  177.5380  176.2060  166.8270 C   0  0  0  0  0  0  0  0  0  0  0  0
  178.5390  176.1940  165.9170 N   0  0  0  0  0  0  0  0  0  0  0  0
  176.2840  176.5200  166.4210 N   0  0  0  0  0  0  0  0  0  0  0  0
  163.2940  185.5650  171.7790 N   0  0  0  0  0  0  0  0  0  0  0  0
  163.0500  184.3790  170.9860 C   0  0  2  0  0  0  0  0  0  0  0  0
  161.5840  184.1760  170.7000 C   0  0  0  0  0  0  0  0  0  0  0  0
  161.2080  183.8430  169.5790 O   0  0  0  0  0  0  0  0  0  0  0  0
  163.6070  183.1040  171.6710 C   0  0  0  0  0  0  0  0  0  0  0  0
  163.4090  181.7700  170.9090 C   0  0  0  0  0  0  0  0  0  0  0  0
  164.0300  181.8130  169.5010 C   0  0  0  0  0  0  0  0  0  0  0  0
  163.9550  180.5720  171.7110 C   0  0  0  0  0  0  0  0  0  0  0  0
  159.7940  184.3610  166.9610 N   0  0  0  0  0  0  0  0  0  0  0  0
  158.9980  183.2400  166.5070 C   0  0  2  0  0  0  0  0  0  0  0  0
  157.5900  183.6630  166.1710 C   0  0  0  0  0  0  0  0  0  0  0  0
  157.0130  183.1730  165.2020 O   0  0  0  0  0  0  0  0  0  0  0  0
  159.0540  182.0840  167.5060 C   0  0  2  0  0  0  0  0  0  0  0  0
  160.4480  181.4130  167.4090 C   0  0  0  0  0  0  0  0  0  0  0  0
  157.9260  181.0520  167.2920 C   0  0  0  0  0  0  0  0  0  0  0  0
  160.7510  180.4540  168.5610 C   0  0  0  0  0  0  0  0  0  0  0  0
  156.5100  180.5470  159.6960 N   0  0  0  0  0  0  0  0  0  0  0  0
  156.9930  179.2230  159.3850 C   0  0  2  0  0  0  0  0  0  0  0  0
  157.5530  178.5730  160.6240 C   0  0  0  0  0  0  0  0  0  0  0  0
  157.3430  177.3830  160.8520 O   0  0  0  0  0  0  0  0  0  0  0  0
  158.1320  179.2480  158.3220 C   0  0  0  0  0  0  0  0  0  0  0  0
  157.7220  179.9060  156.9950 C   0  0  0  0  0  0  0  0  0  0  0  0
  156.5090  180.1660  156.7810 O   0  0  0  0  0  0  0  0  0  0  0  0
  158.6370  180.1150  156.1510 O   0  0  0  0  0  0  0  0  0  0  0  0
  158.2650  179.3700  161.4590 N   0  0  0  0  0  0  0  0  0  0  0  0
  158.9120  178.9090  162.6640 C   0  0  2  0  0  0  0  0  0  0  0  0
  157.9730  178.3930  163.7100 C   0  0  0  0  0  0  0  0  0  0  0  0
  158.1870  177.3070  164.2380 O   0  0  0  0  0  0  0  0  0  0  0  0
  159.8600  179.9580  163.2780 C   0  0  0  0  0  0  0  0  0  0  0  0
  161.0120  180.3010  162.3170 C   0  0  0  0  0  0  0  0  0  0  0  0
  162.0100  181.2420  163.0000 C   0  0  0  0  0  0  0  0  0  0  0  0
  161.6540  181.9620  163.9410 O   0  0  0  0  0  0  0  0  0  0  0  0
  163.2840  181.2290  162.4980 N   0  0  0  0  0  0  0  0  0  0  0  0
  156.5600  174.8040  164.0520 N   0  0  0  0  0  0  0  0  0  0  0  0
  157.4620  173.7900  164.5250 C   0  0  2  0  0  0  0  0  0  0  0  0
  157.8910  174.0410  165.9490 C   0  0  0  0  0  0  0  0  0  0  0  0
  158.3030  173.1040  166.6310 O   0  0  0  0  0  0  0  0  0  0  0  0
  158.7250  173.7470  163.6400 C   0  0  0  0  0  0  0  0  0  0  0  0
  158.4010  173.7680  162.1720 C   0  0  0  0  0  0  0  0  0  0  0  0
  157.6190  172.8400  161.5200 N   0  0  0  0  0  0  0  0  0  0  0  0
  158.7870  174.6590  161.2190 C   0  0  0  0  0  0  0  0  0  0  0  0
  157.5660  173.2190  160.2180 C   0  0  0  0  0  0  0  0  0  0  0  0
  158.2600  174.3180  159.9880 N   0  0  0  0  0  0  0  0  0  0  0  0
  157.8450  175.3140  166.4160 N   0  0  0  0  0  0  0  0  0  0  0  0
  158.3480  175.7000  167.7160 C   0  0  2  0  0  0  0  0  0  0  0  0
  157.2200  176.1990  168.5720 C   0  0  0  0  0  0  0  0  0  0  0  0
  156.5350  177.1630  168.2340 O   0  0  0  0  0  0  0  0  0  0  0  0
  159.4730  176.7680  167.6620 C   0  0  0  0  0  0  0  0  0  0  0  0
  159.1060  177.9110  166.9010 O   0  0  0  0  0  0  0  0  0  0  0  0
  167.5470  171.2650  177.2190 N   0  0  0  0  0  0  0  0  0  0  0  0
  168.2860  171.6750  176.0480 C   0  0  2  0  0  0  0  0  0  0  0  0
  168.4710  170.5780  175.0510 C   0  0  0  0  0  0  0  0  0  0  0  0
  168.7400  170.8650  173.8850 O   0  0  0  0  0  0  0  0  0  0  0  0
  169.6760  172.2460  176.4190 C   0  0  0  0  0  0  0  0  0  0  0  0
  169.4850  173.5670  177.1230 C   0  0  0  0  0  0  0  0  0  0  0  0
  169.2560  173.6260  178.5070 C   0  0  0  0  0  0  0  0  0  0  0  0
  169.5530  174.7700  176.4000 C   0  0  0  0  0  0  0  0  0  0  0  0
  169.0460  174.8530  179.1460 C   0  0  0  0  0  0  0  0  0  0  0  0
  169.3970  176.0020  177.0440 C   0  0  0  0  0  0  0  0  0  0  0  0
  169.1370  176.0450  178.4190 C   0  0  0  0  0  0  0  0  0  0  0  0
  168.9790  177.2860  179.0720 O   0  0  0  0  0  0  0  0  0  0  0  0
  168.3450  169.3030  175.4740 N   0  0  0  0  0  0  0  0  0  0  0  0
  168.6410  168.1860  174.6090 C   0  0  2  0  0  0  0  0  0  0  0  0
  167.4040  167.3960  174.3430 C   0  0  0  0  0  0  0  0  0  0  0  0
  167.1060  167.1120  173.1870 O   0  0  0  0  0  0  0  0  0  0  0  0
  169.7340  167.2420  175.1590 C   0  0  0  0  0  0  0  0  0  0  0  0
  170.9490  167.9530  175.3420 O   0  0  0  0  0  0  0  0  0  0  0  0
  166.6950  166.9580  175.4120 N   0  0  0  0  0  0  0  0  0  0  0  0
  165.6450  165.9570  175.3260 C   0  0  2  0  0  0  0  0  0  0  0  0
  164.4610  166.4250  174.5180 C   0  0  0  0  0  0  0  0  0  0  0  0
  163.8200  165.6180  173.8470 O   0  0  0  0  0  0  0  0  0  0  0  0
  165.1370  165.4130  176.6940 C   0  0  0  0  0  0  0  0  0  0  0  0
  166.1680  164.6870  177.5460 C   0  0  0  0  0  0  0  0  0  0  0  0
  167.5300  164.5310  177.2100 C   0  0  0  0  0  0  0  0  0  0  0  0
  165.7260  164.1290  178.7610 C   0  0  0  0  0  0  0  0  0  0  0  0
  168.4150  163.8630  178.0650 C   0  0  0  0  0  0  0  0  0  0  0  0
  166.6080  163.4610  179.6180 C   0  0  0  0  0  0  0  0  0  0  0  0
  167.9560  163.3300  179.2710 C   0  0  0  0  0  0  0  0  0  0  0  0
  164.5220  168.3580  171.7970 N   0  0  0  0  0  0  0  0  0  0  0  0
  164.8450  168.2720  170.3840 C   0  0  2  0  0  0  0  0  0  0  0  0
  164.6600  166.8650  169.8730 C   0  0  0  0  0  0  0  0  0  0  0  0
  165.1190  165.8990  170.4810 O   0  0  0  0  0  0  0  0  0  0  0  0
  166.2800  168.7850  170.0450 C   0  0  0  0  0  0  0  0  0  0  0  0
  166.4510  170.3190  170.1080 C   0  0  0  0  0  0  0  0  0  0  0  0
  165.7270  170.9720  170.8710 O   0  0  0  0  0  0  0  0  0  0  0  0
  167.3630  170.9010  169.2770 N   0  0  0  0  0  0  0  0  0  0  0  0
  164.0160  166.7640  168.6860 N   0  0  0  0  0  0  0  0  0  0  0  0
  163.7100  165.5460  167.9690 C   0  0  2  0  0  0  0  0  0  0  0  0
  164.9790  164.8820  167.5130 C   0  0  0  0  0  0  0  0  0  0  0  0
  165.1040  163.6600  167.5310 O   0  0  0  0  0  0  0  0  0  0  0  0
  162.7920  165.8380  166.7580 C   0  0  0  0  0  0  0  0  0  0  0  0
  162.3190  164.6150  165.9450 C   0  0  0  0  0  0  0  0  0  0  0  0
  162.8470  164.5610  164.4970 C   0  0  0  0  0  0  0  0  0  0  0  0
  164.2900  164.1540  164.4780 N   0  0  0  0  0  0  0  0  0  0  0  0
  165.0750  164.2620  163.3760 C   0  0  0  0  0  0  0  0  0  0  0  0
  164.6260  164.8540  162.2430 N   0  0  0  0  0  0  0  0  0  0  0  0
  166.3350  163.7630  163.4040 N   0  0  0  0  0  0  0  0  0  0  0  0
  165.9410  165.7170  167.0620 N   0  0  0  0  0  0  0  0  0  0  0  0
  167.2310  165.3340  166.5490 C   0  0  2  0  0  0  0  0  0  0  0  0
  168.0460  164.5860  167.5660 C   0  0  0  0  0  0  0  0  0  0  0  0
  168.6520  163.5670  167.2400 O   0  0  0  0  0  0  0  0  0  0  0  0
  168.0040  166.5890  166.0860 C   0  0  0  0  0  0  0  0  0  0  0  0
  167.2600  167.2740  164.9310 C   0  0  0  0  0  0  0  0  0  0  0  0
  166.4130  168.1420  165.1700 O   0  0  0  0  0  0  0  0  0  0  0  0
  167.6230  166.9060  163.6660 N   0  0  0  0  0  0  0  0  0  0  0  0
  168.0480  165.0570  168.8370 N   0  0  0  0  0  0  0  0  0  0  0  0
  168.7200  164.3810  169.9210 C   0  0  2  0  0  0  0  0  0  0  0  0
  168.1330  163.0160  170.1760 C   0  0  0  0  0  0  0  0  0  0  0  0
  168.8700  162.0680  170.4260 O   0  0  0  0  0  0  0  0  0  0  0  0
  168.6610  165.2100  171.2360 C   0  0  0  0  0  0  0  0  0  0  0  0
  169.1690  164.4510  172.4470 C   0  0  0  0  0  0  0  0  0  0  0  0
  170.5390  164.1910  172.5980 C   0  0  0  0  0  0  0  0  0  0  0  0
  168.2680  163.8920  173.3690 C   0  0  0  0  0  0  0  0  0  0  0  0
  171.0040  163.3910  173.6480 C   0  0  0  0  0  0  0  0  0  0  0  0
  168.7250  163.0640  174.3990 C   0  0  0  0  0  0  0  0  0  0  0  0
  170.0950  162.8100  174.5400 C   0  0  0  0  0  0  0  0  0  0  0  0
  170.5550  161.9480  175.5590 O   0  0  0  0  0  0  0  0  0  0  0  0
  169.2010  160.5060  167.5100 N   0  0  0  0  0  0  0  0  0  0  0  0
  170.5810  160.1630  167.7740 C   0  0  2  0  0  0  0  0  0  0  0  0
  170.7190  159.2280  168.9480 C   0  0  0  0  0  0  0  0  0  0  0  0
  171.5240  158.3030  168.9180 O   0  0  0  0  0  0  0  0  0  0  0  0
  171.4930  161.3970  167.9640 C   0  0  0  0  0  0  0  0  0  0  0  0
  171.7280  162.2050  166.6730 C   0  0  0  0  0  0  0  0  0  0  0  0
  172.3670  161.3250  165.5960 C   0  0  0  0  0  0  0  0  0  0  0  0
  173.4600  160.7600  165.8640 O   0  0  0  0  0  0  0  0  0  0  0  0
  171.7630  161.2000  164.4970 O   0  0  0  0  0  0  0  0  0  0  0  0
  2  1  1  1
  3  2  1  0
  4  3  2  0
  5  2  1  0
  6  5  1  0
  7  5  1  0
  9  8  1  1
 10  9  1  0
 11 10  2  0
 12  9  1  0
 13 12  1  0
 14 12  1  0
 15 10  1  0
 16 15  1  0
 17 16  1  0
 18 17  2  0
 16 19  1  1
 20 19  1  0
 21 20  2  0
 22 20  1  0
 24 23  1  0
 25 24  1  0
 26 25  2  0
 24 27  1  1
 29 28  1  1
 30 29  1  0
 31 30  2  0
 32 29  1  0
 33 32  1  0
 32 34  1  6
 35 30  1  0
 36 35  1  0
 37 36  1  0
 38 37  2  0
 39 37  1  0
 40 39  1  0
 41 40  1  0
 42 41  2  0
 40 43  1  1
 44 43  1  0
 45 44  2  0
 46 44  1  0
 47 45  1  0
 48 46  2  0
 49 47  2  0
 49 48  1  0
 50 49  1  0
 51 41  1  0
 52 51  1  0
 53 52  1  0
 54 53  2  0
 52 55  1  6
 56 55  1  0
 57 56  2  0
 58 56  1  0
 59 53  1  0
 60 59  1  6
 61 60  1  0
 62 61  2  0
 63 60  1  0
 64 63  1  0
 63 65  1  1
 66 61  1  0
 67 66  1  0
 68 67  1  0
 69 68  2  0
 67 70  1  1
 71 70  1  0
 72 71  1  0
 73 71  2  0
 74 72  2  0
 75 74  1  0
 75 73  1  0
 77 76  1  6
 78 77  1  0
 79 78  2  0
 80 77  1  0
 81 80  1  0
 82 81  2  0
 83 81  1  0
 84 82  1  0
 85 83  2  0
 86 85  1  0
 86 84  2  0
 87 86  1  0
 88 78  1  0
 89 88  1  6
 90 89  1  0
 91 90  2  0
 92 89  1  0
 93 92  1  0
 92 94  1  1
 95 93  1  0
 97 96  1  1
 98 97  1  0
 99 98  2  0
100 97  1  0
101100  1  0
102 98  1  0
103102  1  0
104103  1  0
105104  2  0
103106  1  1
107106  1  0
108107  1  0
109108  1  0
110104  1  0
111110  1  0
112111  1  0
113112  2  0
111114  1  1
115114  1  0
117116  1  1
118117  1  0
119118  2  0
120117  1  0
121120  1  0
122121  2  0
123121  1  0
124118  1  0
125124  1  0
126125  1  0
127126  2  0
125128  1  1
129128  1  0
130129  1  0
131130  1  0
132131  1  0
133132  1  0
134132  2  0
135126  1  0
136135  1  0
137136  1  0
138137  2  0
136139  1  1
140139  1  0
141140  2  0
142140  1  0
143141  1  0
144142  2  0
145143  2  0
145144  1  0
146145  1  0
148147  1  1
149148  1  0
150149  2  0
151148  1  0
152151  1  0
153149  1  0
154153  1  1
155154  1  0
156155  2  0
157154  1  0
158157  1  0
157159  1  1
160158  1  0
161155  1  0
162161  1  1
163162  1  0
164163  2  0
165162  1  0
166165  1  0
165167  1  1
169168  1  1
170169  1  0
171170  2  0
172169  1  0
173172  1  0
174173  2  0
175173  1  0
176174  1  0
177175  2  0
178177  1  0
178176  2  0
179170  1  0
180179  1  1
181180  1  0
182181  2  0
183180  1  0
184183  1  0
183185  1  6
187186  1  6
188187  1  0
189188  2  0
190187  1  0
191190  1  0
193192  1  6
194193  1  0
195194  2  0
196193  1  0
197196  1  0
198197  1  0
199198  1  0
200199  1  0
201194  1  0
202201  1  0
203202  1  0
204203  2  0
202205  1  6
206205  1  0
207206  1  0
208207  1  0
209208  1  0
211210  1  6
212211  1  0
213212  2  0
214211  1  0
215214  1  0
216215  1  0
217216  1  0
218217  1  0
219218  1  0
220218  2  0
222221  1  1
223222  1  0
224223  2  0
225222  1  0
226225  1  0
227226  1  0
228226  1  0
230229  1  1
231230  1  0
232231  2  0
233230  1  0
234233  1  0
233235  1  6
236234  1  0
238237  1  1
239238  1  0
240239  2  0
241238  1  0
242241  1  0
243242  2  0
244242  1  0
245239  1  0
246245  1  0
247246  1  0
248247  2  0
246249  1  1
250249  1  0
251250  1  0
252251  2  0
253251  1  0
255254  1  6
256255  1  0
257256  2  0
258255  1  0
259258  1  0
260259  1  0
261259  2  0
262260  2  0
263262  1  0
263261  1  0
264256  1  0
265264  1  0
266265  1  0
267266  2  0
265268  1  6
269268  1  0
271270  1  1
272271  1  0
273272  2  0
274271  1  0
275274  1  0
276275  2  0
277275  1  0
278276  1  0
279277  2  0
280279  1  0
280278  2  0
281280  1  0
282272  1  0
283282  1  0
284283  1  0
285284  2  0
283286  1  1
287286  1  0
288284  1  0
289288  1  0
290289  1  0
291290  2  0
289292  1  1
293292  1  0
294293  2  0
295293  1  0
296294  1  0
297295  2  0
298297  1  0
298296  2  0
300299  1  1
301300  1  0
302301  2  0
303300  1  0
304303  1  0
305304  2  0
306304  1  0
307301  1  0
308307  1  0
309308  1  0
310309  2  0
308311  1  6
312311  1  0
313312  1  0
314313  1  0
315314  1  0
316315  1  0
317315  2  0
318309  1  0
319318  1  0
320319  1  0
321320  2  0
319322  1  1
323322  1  0
324323  2  0
325323  1  0
326320  1  0
327326  1  0
328327  1  0
329328  2  0
327330  1  1
331330  1  0
332331  2  0
333331  1  0
334332  1  0
335333  2  0
336335  1  0
336334  2  0
337336  1  0
339338  1  1
340339  1  0
341340  2  0
342339  1  0
343342  1  0
344343  1  0
345344  2  0
346344  1  0
M  END
$$$$
