
     RDKit          3D

100 99  0  0  0  0  0  0  0  0999 V2000
  129.1800  113.9290   89.9460 N   0  0  0  0  0  0  0  0  0  0  0  0
  128.3610  113.5630   91.0880 C   0  0  2  0  0  0  0  0  0  0  0  0
  129.1560  113.6330   92.3690 C   0  0  0  0  0  0  0  0  0  0  0  0
  128.8220  112.9670   93.3580 O   0  0  0  0  0  0  0  0  0  0  0  0
  127.7880  112.1590   90.8850 C   0  0  0  0  0  0  0  0  0  0  0  0
  130.1750  114.4880   92.3690 N   0  0  0  0  0  0  0  0  0  0  0  0
  131.1120  114.6760   93.4560 C   0  0  2  0  0  0  0  0  0  0  0  0
  130.9660  116.0480   94.0870 C   0  0  0  0  0  0  0  0  0  0  0  0
  131.8460  116.4550   94.8510 O   0  0  0  0  0  0  0  0  0  0  0  0
  132.5440  114.4750   92.9630 C   0  0  0  0  0  0  0  0  0  0  0  0
  133.4770  114.8590   93.9550 O   0  0  0  0  0  0  0  0  0  0  0  0
  129.8820  116.7730   93.7910 N   0  0  0  0  0  0  0  0  0  0  0  0
  129.6430  118.0260   94.4800 C   0  0  2  0  0  0  0  0  0  0  0  0
  128.6180  117.7770   95.5640 C   0  0  0  0  0  0  0  0  0  0  0  0
  127.9930  116.7180   95.6510 O   0  0  0  0  0  0  0  0  0  0  0  0
  129.0830  119.0920   93.5270 C   0  0  0  0  0  0  0  0  0  0  0  0
  130.0910  119.6880   92.5890 C   0  0  0  0  0  0  0  0  0  0  0  0
  131.2260  120.3190   93.0620 C   0  0  0  0  0  0  0  0  0  0  0  0
  129.8710  119.6540   91.2230 C   0  0  0  0  0  0  0  0  0  0  0  0
  132.1380  120.8760   92.1920 C   0  0  0  0  0  0  0  0  0  0  0  0
  130.7780  120.2120   90.3510 C   0  0  0  0  0  0  0  0  0  0  0  0
  131.9130  120.8240   90.8370 C   0  0  0  0  0  0  0  0  0  0  0  0
  128.4700  118.7800   96.4070 N   0  0  0  0  0  0  0  0  0  0  0  0
  127.7340  118.5980   97.6390 C   0  0  2  0  0  0  0  0  0  0  0  0
  127.1310  119.9650   97.9730 C   0  0  0  0  0  0  0  0  0  0  0  0
  127.8890  120.9160   98.1850 O   0  0  0  0  0  0  0  0  0  0  0  0
  128.7700  117.9560   98.6130 C   0  0  0  0  0  0  0  0  0  0  0  0
  128.5680  117.8360  100.0070 O   0  0  0  0  0  0  0  0  0  0  0  0
  131.3480  122.0250   98.3120 N   0  0  0  0  0  0  0  0  0  0  0  0
  131.3800  120.6130   98.5770 C   0  0  2  0  0  0  0  0  0  0  0  0
  132.1640  120.3120   99.8310 C   0  0  0  0  0  0  0  0  0  0  0  0
  132.9760  121.0870  100.3300 O   0  0  0  0  0  0  0  0  0  0  0  0
  131.9350  119.7770   97.3900 C   0  0  0  0  0  0  0  0  0  0  0  0
  133.3690  119.9820   96.9460 C   0  0  0  0  0  0  0  0  0  0  0  0
  134.4200  119.1590   97.1990 C   0  0  0  0  0  0  0  0  0  0  0  0
  133.8780  121.0060   96.0760 C   0  0  0  0  0  0  0  0  0  0  0  0
  135.5540  119.6220   96.5940 N   0  0  0  0  0  0  0  0  0  0  0  0
  135.2490  120.7550   95.8940 C   0  0  0  0  0  0  0  0  0  0  0  0
  133.3140  122.1200   95.4520 C   0  0  0  0  0  0  0  0  0  0  0  0
  136.0620  121.5740   95.1270 C   0  0  0  0  0  0  0  0  0  0  0  0
  134.1270  122.9340   94.6910 C   0  0  0  0  0  0  0  0  0  0  0  0
  135.4830  122.6560   94.5340 C   0  0  0  0  0  0  0  0  0  0  0  0
  131.8710  119.1270  100.2890 N   0  0  0  0  0  0  0  0  0  0  0  0
  132.7270  118.2790  101.0890 C   0  0  2  0  0  0  0  0  0  0  0  0
  133.9350  117.6780  100.3980 C   0  0  0  0  0  0  0  0  0  0  0  0
  133.8590  117.0450   99.3470 O   0  0  0  0  0  0  0  0  0  0  0  0
  131.6720  117.2420  101.5260 C   0  0  0  0  0  0  0  0  0  0  0  0
  132.1380  115.9540  102.0720 C   0  0  0  0  0  0  0  0  0  0  0  0
  132.1090  115.0800  101.1970 O   0  0  0  0  0  0  0  0  0  0  0  0
  132.5070  115.7300  103.3230 N   0  0  0  0  0  0  0  0  0  0  0  0
  135.0530  117.7700  101.1640 N   0  0  0  0  0  0  0  0  0  0  0  0
  136.4040  117.4590  100.7140 C   0  0  2  0  0  0  0  0  0  0  0  0
  137.2680  116.7080  101.7270 C   0  0  0  0  0  0  0  0  0  0  0  0
  138.4940  116.7470  101.5890 O   0  0  0  0  0  0  0  0  0  0  0  0
  137.1210  118.7600  100.3250 C   0  0  0  0  0  0  0  0  0  0  0  0
  137.2170  119.6320  101.4370 O   0  0  0  0  0  0  0  0  0  0  0  0
  136.6990  116.0940  102.7740 N   0  0  0  0  0  0  0  0  0  0  0  0
  137.4910  115.7890  103.9730 C   0  0  2  0  0  0  0  0  0  0  0  0
  138.7130  114.9250  103.6680 C   0  0  0  0  0  0  0  0  0  0  0  0
  139.7030  114.9610  104.4080 O   0  0  0  0  0  0  0  0  0  0  0  0
  136.6320  115.1250  105.0480 C   0  0  0  0  0  0  0  0  0  0  0  0
  137.2340  115.2710  106.4410 C   0  0  0  0  0  0  0  0  0  0  0  0
  138.3770  115.7020  106.5890 O   0  0  0  0  0  0  0  0  0  0  0  0
  136.4680  114.9140  107.4620 N   0  0  0  0  0  0  0  0  0  0  0  0
  138.6630  114.1600  102.5790 N   0  0  0  0  0  0  0  0  0  0  0  0
  139.7210  113.2240  102.2340 C   0  0  2  0  0  0  0  0  0  0  0  0
  141.0820  113.8770  102.0030 C   0  0  0  0  0  0  0  0  0  0  0  0
  142.0930  113.1760  102.1180 O   0  0  0  0  0  0  0  0  0  0  0  0
  139.3060  112.4560  100.9820 C   0  0  0  0  0  0  0  0  0  0  0  0
  139.4170  113.2940   99.7280 C   0  0  0  0  0  0  0  0  0  0  0  0
  139.0350  114.4620   99.7210 O   0  0  0  0  0  0  0  0  0  0  0  0
  139.9250  112.7000   98.6580 N   0  0  0  0  0  0  0  0  0  0  0  0
  129.7600  115.9210  111.0760 N   0  0  0  0  0  0  0  0  0  0  0  0
  129.4360  116.3320  109.7110 C   0  0  2  0  0  0  0  0  0  0  0  0
  129.3160  117.8490  109.6240 C   0  0  0  0  0  0  0  0  0  0  0  0
  129.8330  118.4730  108.6920 O   0  0  0  0  0  0  0  0  0  0  0  0
  128.1560  115.6260  109.2140 C   0  0  0  0  0  0  0  0  0  0  0  0
  128.3580  114.1190  109.1780 C   0  0  0  0  0  0  0  0  0  0  0  0
  126.9240  115.9840  110.0590 C   0  0  0  0  0  0  0  0  0  0  0  0
  132.7950  119.5570  109.1570 N   0  0  0  0  0  0  0  0  0  0  0  0
  133.7350  119.1740  108.1160 C   0  0  2  0  0  0  0  0  0  0  0  0
  134.2030  120.4040  107.3360 C   0  0  0  0  0  0  0  0  0  0  0  0
  133.4870  121.4040  107.2530 O   0  0  0  0  0  0  0  0  0  0  0  0
  133.1080  118.1680  107.1470 C   0  0  0  0  0  0  0  0  0  0  0  0
  132.7960  116.7640  107.6830 C   0  0  0  0  0  0  0  0  0  0  0  0
  133.8360  116.1610  108.6210 C   0  0  0  0  0  0  0  0  0  0  0  0
  135.0240  116.4750  108.5520 O   0  0  0  0  0  0  0  0  0  0  0  0
  133.3820  115.2890  109.5130 N   0  0  0  0  0  0  0  0  0  0  0  0
  134.3060  122.3770  104.2850 N   0  0  0  0  0  0  0  0  0  0  0  0
  133.6130  122.4320  102.9950 C   0  0  2  0  0  0  0  0  0  0  0  0
  134.3530  123.3890  102.0720 C   0  0  0  0  0  0  0  0  0  0  0  0
  134.2650  124.6110  102.2010 O   0  0  0  0  0  0  0  0  0  0  0  0
  132.1360  122.8150  103.0870 C   0  0  0  0  0  0  0  0  0  0  0  0
  131.2020  121.7850  103.7010 C   0  0  0  0  0  0  0  0  0  0  0  0
  131.4030  120.4310  103.5210 C   0  0  0  0  0  0  0  0  0  0  0  0
  130.0150  122.1760  104.2860 C   0  0  0  0  0  0  0  0  0  0  0  0
  130.5320  119.5000  104.0450 C   0  0  0  0  0  0  0  0  0  0  0  0
  129.1300  121.2470  104.8080 C   0  0  0  0  0  0  0  0  0  0  0  0
  129.3910  119.9110  104.6770 C   0  0  0  0  0  0  0  0  0  0  0  0
  128.5080  118.9870  105.1860 O   0  0  0  0  0  0  0  0  0  0  0  0
  2  1  1  0
  3  2  1  0
  4  3  2  0
  2  5  1  6
  6  3  1  0
  7  6  1  0
  8  7  1  0
  9  8  2  0
  7 10  1  6
 11 10  1  0
 12  8  1  0
 13 12  1  0
 14 13  1  0
 15 14  2  0
 13 16  1  6
 17 16  1  0
 18 17  2  0
 19 17  1  0
 20 18  1  0
 21 19  2  0
 22 21  1  0
 22 20  2  0
 23 14  1  0
 24 23  1  0
 25 24  1  0
 26 25  2  0
 24 27  1  1
 28 27  1  0
 30 29  1  6
 31 30  1  0
 32 31  2  0
 33 30  1  0
 34 33  1  0
 35 34  2  0
 36 34  1  0
 37 35  1  0
 38 37  1  0
 38 36  2  0
 39 36  1  0
 40 38  1  0
 41 39  2  0
 42 41  1  0
 42 40  2  0
 43 31  1  0
 44 43  1  0
 45 44  1  0
 46 45  2  0
 44 47  1  6
 48 47  1  0
 49 48  2  0
 50 48  1  0
 51 45  1  0
 52 51  1  0
 53 52  1  0
 54 53  2  0
 52 55  1  1
 56 55  1  0
 57 53  1  0
 58 57  1  0
 59 58  1  0
 60 59  2  0
 58 61  1  1
 62 61  1  0
 63 62  2  0
 64 62  1  0
 65 59  1  0
 66 65  1  0
 67 66  1  0
 68 67  2  0
 66 69  1  6
 70 69  1  0
 71 70  2  0
 72 70  1  0
 74 73  1  1
 75 74  1  0
 76 75  2  0
 77 74  1  0
 78 77  1  0
 79 77  1  0
 81 80  1  1
 82 81  1  0
 83 82  2  0
 84 81  1  0
 85 84  1  0
 86 85  1  0
 87 86  2  0
 88 86  1  0
 90 89  1  1
 91 90  1  0
 92 91  2  0
 93 90  1  0
 94 93  1  0
 95 94  2  0
 96 94  1  0
 97 95  1  0
 98 96  2  0
 99 97  2  0
 99 98  1  0
100 99  1  0
M  END
$$$$
