
     RDKit          3D

138134  0  0  0  0  0  0  0  0999 V2000
  -17.6100  103.5360  -23.9580 N   0  0  0  0  0  0  0  0  0  0  0  0
  -18.2750  104.2730  -25.0230 C   0  0  2  0  0  0  0  0  0  0  0  0
  -19.7850  104.1410  -24.8890 C   0  0  0  0  0  0  0  0  0  0  0  0
  -20.3070  103.0410  -24.6890 O   0  0  0  0  0  0  0  0  0  0  0  0
  -17.8260  103.7390  -26.3840 C   0  0  0  0  0  0  0  0  0  0  0  0
  -16.3990  104.0950  -26.7710 C   0  0  0  0  0  0  0  0  0  0  0  0
  -15.3640  103.3080  -25.9870 C   0  0  0  0  0  0  0  0  0  0  0  0
  -15.6790  102.1780  -25.5570 O   0  0  0  0  0  0  0  0  0  0  0  0
  -14.2390  103.8170  -25.7960 O   0  0  0  0  0  0  0  0  0  0  0  0
  -20.4950  105.2620  -25.0000 N   0  0  0  0  0  0  0  0  0  0  0  0
  -21.9540  105.2370  -24.9080 C   0  0  2  0  0  0  0  0  0  0  0  0
  -22.5530  104.8910  -26.2710 C   0  0  0  0  0  0  0  0  0  0  0  0
  -23.1360  105.7150  -26.9770 O   0  0  0  0  0  0  0  0  0  0  0  0
  -22.4810  106.5530  -24.3550 C   0  0  0  0  0  0  0  0  0  0  0  0
  -22.5000  106.5330  -22.8410 C   0  0  0  0  0  0  0  0  0  0  0  0
  -22.1270  107.8380  -22.2120 C   0  0  0  0  0  0  0  0  0  0  0  0
  -22.3740  107.8110  -20.7180 C   0  0  0  0  0  0  0  0  0  0  0  0
  -23.2080  108.9560  -20.2590 N   0  0  0  0  0  0  0  0  0  0  0  0
  -22.3960  103.6160  -26.6180 N   0  0  0  0  0  0  0  0  0  0  0  0
  -22.8850  103.0440  -27.8600 C   0  0  2  0  0  0  0  0  0  0  0  0
  -23.6470  101.7690  -27.5370 C   0  0  0  0  0  0  0  0  0  0  0  0
  -23.1940  100.9560  -26.7250 O   0  0  0  0  0  0  0  0  0  0  0  0
  -21.7320  102.7310  -28.8250 C   0  0  0  0  0  0  0  0  0  0  0  0
  -21.0560  103.9800  -29.3500 C   0  0  0  0  0  0  0  0  0  0  0  0
  -21.7140  104.8990  -29.8370 O   0  0  0  0  0  0  0  0  0  0  0  0
  -19.7310  104.0230  -29.2470 N   0  0  0  0  0  0  0  0  0  0  0  0
  -25.3860   98.4770  -29.5460 N   0  0  0  0  0  0  0  0  0  0  0  0
  -25.3140   97.7900  -30.8270 C   0  0  2  0  0  0  0  0  0  0  0  0
  -26.3840   96.7090  -30.9040 C   0  0  0  0  0  0  0  0  0  0  0  0
  -26.5010   95.8780  -29.9970 O   0  0  0  0  0  0  0  0  0  0  0  0
  -23.9270   97.1760  -31.0400 C   0  0  0  0  0  0  0  0  0  0  0  0
  -22.8010   98.1480  -30.8650 C   0  0  0  0  0  0  0  0  0  0  0  0
  -22.5420   99.1610  -31.7640 N   0  0  0  0  0  0  0  0  0  0  0  0
  -21.8580   98.2550  -29.8990 C   0  0  0  0  0  0  0  0  0  0  0  0
  -21.4940   99.8540  -31.3560 C   0  0  0  0  0  0  0  0  0  0  0  0
  -21.0590   99.3240  -30.2270 N   0  0  0  0  0  0  0  0  0  0  0  0
  -27.2390  107.6320  -25.2430 N   0  0  0  0  0  0  0  0  0  0  0  0
  -26.4920  106.5890  -25.9320 C   0  0  2  0  0  0  0  0  0  0  0  0
  -26.8010  106.5860  -27.4210 C   0  0  0  0  0  0  0  0  0  0  0  0
  -27.9550  106.7480  -27.8320 O   0  0  0  0  0  0  0  0  0  0  0  0
  -26.7950  105.1990  -25.3520 C   0  0  0  0  0  0  0  0  0  0  0  0
  -26.0140  104.8440  -24.1050 C   0  0  0  0  0  0  0  0  0  0  0  0
  -26.1670  105.5720  -22.9330 C   0  0  0  0  0  0  0  0  0  0  0  0
  -25.1260  103.7740  -24.1030 C   0  0  0  0  0  0  0  0  0  0  0  0
  -25.4600  105.2430  -21.7920 C   0  0  0  0  0  0  0  0  0  0  0  0
  -24.4140  103.4410  -22.9700 C   0  0  0  0  0  0  0  0  0  0  0  0
  -24.5870  104.1780  -21.8180 C   0  0  0  0  0  0  0  0  0  0  0  0
  -23.8760  103.8510  -20.6880 O   0  0  0  0  0  0  0  0  0  0  0  0
  -25.7540  106.4040  -28.2200 N   0  0  0  0  0  0  0  0  0  0  0  0
  -25.9180  106.1360  -29.6390 C   0  0  2  0  0  0  0  0  0  0  0  0
  -26.4850  104.7360  -29.8270 C   0  0  0  0  0  0  0  0  0  0  0  0
  -26.1170  103.8000  -29.1140 O   0  0  0  0  0  0  0  0  0  0  0  0
  -24.5760  106.2600  -30.3600 C   0  0  0  0  0  0  0  0  0  0  0  0
  -24.7170  106.3010  -31.8710 C   0  0  0  0  0  0  0  0  0  0  0  0
  -23.7230  106.2390  -32.5950 O   0  0  0  0  0  0  0  0  0  0  0  0
  -25.9460  106.4460  -32.3540 N   0  0  0  0  0  0  0  0  0  0  0  0
  -27.3930  104.5950  -30.7840 N   0  0  0  0  0  0  0  0  0  0  0  0
  -28.0370  103.3200  -31.0700 C   0  0  2  0  0  0  0  0  0  0  0  0
  -27.7480  102.9730  -32.5240 C   0  0  0  0  0  0  0  0  0  0  0  0
  -28.1680  103.6910  -33.4430 O   0  0  0  0  0  0  0  0  0  0  0  0
  -29.5430  103.3610  -30.7890 C   0  0  0  0  0  0  0  0  0  0  0  0
  -30.0880  101.9500  -30.6200 C   0  0  0  0  0  0  0  0  0  0  0  0
  -29.8110  104.1940  -29.5460 C   0  0  0  0  0  0  0  0  0  0  0  0
  -27.0100  101.8870  -32.7310 N   0  0  0  0  0  0  0  0  0  0  0  0
  -26.7050  101.3630  -34.0550 C   0  0  2  0  0  0  0  0  0  0  0  0
  -27.4440  100.0420  -34.2090 C   0  0  0  0  0  0  0  0  0  0  0  0
  -27.2730   99.1330  -33.3880 O   0  0  0  0  0  0  0  0  0  0  0  0
  -25.2010  101.1590  -34.2390 C   0  0  0  0  0  0  0  0  0  0  0  0
  -24.3900  102.3980  -33.8990 C   0  0  0  0  0  0  0  0  0  0  0  0
  -24.8920  103.5220  -33.9450 O   0  0  0  0  0  0  0  0  0  0  0  0
  -23.1230  102.1950  -33.5590 N   0  0  0  0  0  0  0  0  0  0  0  0
  -27.4050   97.5360  -36.7460 N   0  0  0  0  0  0  0  0  0  0  0  0
  -26.6900   97.1300  -37.9550 C   0  0  2  0  0  0  0  0  0  0  0  0
  -27.5390   96.2780  -38.8910 C   0  0  0  0  0  0  0  0  0  0  0  0
  -28.1900   95.3220  -38.4650 O   0  0  0  0  0  0  0  0  0  0  0  0
  -25.4260   96.3630  -37.5600 C   0  0  0  0  0  0  0  0  0  0  0  0
  -24.3410   97.2410  -37.0160 C   0  0  0  0  0  0  0  0  0  0  0  0
  -23.5720   98.0230  -37.8640 C   0  0  0  0  0  0  0  0  0  0  0  0
  -24.0990   97.3010  -35.6530 C   0  0  0  0  0  0  0  0  0  0  0  0
  -22.5790   98.8400  -37.3610 C   0  0  0  0  0  0  0  0  0  0  0  0
  -23.1050   98.1180  -35.1440 C   0  0  0  0  0  0  0  0  0  0  0  0
  -22.3460   98.8880  -35.9990 C   0  0  0  0  0  0  0  0  0  0  0  0
  -28.1850  103.7880  -38.1510 N   0  0  0  0  0  0  0  0  0  0  0  0
  -26.8020  104.0380  -37.7390 C   0  0  2  0  0  0  0  0  0  0  0  0
  -25.8940  102.8690  -38.1370 C   0  0  0  0  0  0  0  0  0  0  0  0
  -25.2330  102.2550  -37.3000 O   0  0  0  0  0  0  0  0  0  0  0  0
  -26.7280  104.3040  -36.2260 C   0  0  0  0  0  0  0  0  0  0  0  0
  -27.2240  105.6930  -35.8350 C   0  0  0  0  0  0  0  0  0  0  0  0
  -27.2660  106.0370  -34.6530 O   0  0  0  0  0  0  0  0  0  0  0  0
  -27.6150  106.4890  -36.8240 N   0  0  0  0  0  0  0  0  0  0  0  0
  -25.8630  102.5680  -39.4410 N   0  0  0  0  0  0  0  0  0  0  0  0
  -25.3030  101.2850  -39.8630 C   0  0  2  0  0  0  0  0  0  0  0  0
  -24.9740  101.1810  -41.3480 C   0  0  0  0  0  0  0  0  0  0  0  0
  -24.1300  101.9280  -41.8560 O   0  0  0  0  0  0  0  0  0  0  0  0
  -26.2900  100.1850  -39.5050 C   0  0  0  0  0  0  0  0  0  0  0  0
  -27.7150  100.6280  -39.7000 C   0  0  0  0  0  0  0  0  0  0  0  0
  -27.9270  101.6590  -40.3730 O   0  0  0  0  0  0  0  0  0  0  0  0
  -28.6240   99.9810  -39.1570 O   0  0  0  0  0  0  0  0  0  0  0  0
  -21.3210   99.3860  -44.0620 N   0  0  0  0  0  0  0  0  0  0  0  0
  -20.2100  100.3230  -44.0980 C   0  0  2  0  0  0  0  0  0  0  0  0
  -19.0090   99.6590  -43.4450 C   0  0  0  0  0  0  0  0  0  0  0  0
  -18.5130   98.6550  -43.9680 O   0  0  0  0  0  0  0  0  0  0  0  0
  -20.5810  101.6400  -43.4220 C   0  0  0  0  0  0  0  0  0  0  0  0
  -21.1340  102.6500  -44.4060 C   0  0  0  0  0  0  0  0  0  0  0  0
  -20.8040  102.6180  -45.5920 O   0  0  0  0  0  0  0  0  0  0  0  0
  -21.9920  103.5410  -43.9250 N   0  0  0  0  0  0  0  0  0  0  0  0
  -18.5460  100.1890  -42.3090 N   0  0  0  0  0  0  0  0  0  0  0  0
  -17.4740   99.5410  -41.5610 C   0  0  2  0  0  0  0  0  0  0  0  0
  -16.2290   99.2970  -42.4000 C   0  0  0  0  0  0  0  0  0  0  0  0
  -16.0030   98.1740  -42.8650 O   0  0  0  0  0  0  0  0  0  0  0  0
  -17.9600   98.2120  -40.9860 C   0  0  0  0  0  0  0  0  0  0  0  0
  -18.3980   98.2820  -39.5590 C   0  0  0  0  0  0  0  0  0  0  0  0
  -18.7420   99.4830  -38.9720 C   0  0  0  0  0  0  0  0  0  0  0  0
  -18.4710   97.1260  -38.8040 C   0  0  0  0  0  0  0  0  0  0  0  0
  -19.1340   99.5210  -37.6540 C   0  0  0  0  0  0  0  0  0  0  0  0
  -18.8610   97.1590  -37.4970 C   0  0  0  0  0  0  0  0  0  0  0  0
  -19.1950   98.3530  -36.9190 C   0  0  0  0  0  0  0  0  0  0  0  0
  -15.5610   99.7480  -32.1450 N   0  0  0  0  0  0  0  0  0  0  0  0
  -16.3350  100.9120  -31.7440 C   0  0  2  0  0  0  0  0  0  0  0  0
  -16.3430  101.0890  -30.2320 C   0  0  0  0  0  0  0  0  0  0  0  0
  -16.1770  102.2050  -29.7340 O   0  0  0  0  0  0  0  0  0  0  0  0
  -17.7810  100.8190  -32.2730 C   0  0  2  0  0  0  0  0  0  0  0  0
  -17.8140  100.6060  -33.7760 C   0  0  0  0  0  0  0  0  0  0  0  0
  -18.5590  102.0740  -31.9160 C   0  0  0  0  0  0  0  0  0  0  0  0
  -19.2000  100.3120  -34.2470 C   0  0  0  0  0  0  0  0  0  0  0  0
  -16.5640  100.0110  -29.4960 N   0  0  0  0  0  0  0  0  0  0  0  0
  -16.8250  100.1180  -28.0730 C   0  0  0  0  0  0  0  0  0  0  0  0
  -18.2980  100.3230  -27.7860 C   0  0  0  0  0  0  0  0  0  0  0  0
  -19.0570  100.8630  -28.5920 O   0  0  0  0  0  0  0  0  0  0  0  0
  -13.3510  100.0130  -26.3930 N   0  0  0  0  0  0  0  0  0  0  0  0
  -12.7530   99.9320  -27.7190 C   0  0  2  0  0  0  0  0  0  0  0  0
  -11.3830   99.2740  -27.6560 C   0  0  0  0  0  0  0  0  0  0  0  0
  -10.5310   99.6580  -26.8500 O   0  0  0  0  0  0  0  0  0  0  0  0
  -12.6360  101.3270  -28.3350 C   0  0  0  0  0  0  0  0  0  0  0  0
  -12.4930  101.3050  -29.8500 C   0  0  0  0  0  0  0  0  0  0  0  0
  -13.0440  102.5640  -30.4980 C   0  0  0  0  0  0  0  0  0  0  0  0
  -12.1260  103.7470  -30.2530 C   0  0  0  0  0  0  0  0  0  0  0  0
  -10.7250  103.4150  -30.6290 N   0  0  0  0  0  0  0  0  0  0  0  0
  2  1  1  1
  3  2  1  0
  4  3  2  0
  5  2  1  0
  6  5  1  0
  7  6  1  0
  8  7  2  0
  9  7  1  0
 10  3  1  0
 11 10  1  0
 12 11  1  0
 13 12  2  0
 11 14  1  6
 15 14  1  0
 16 15  1  0
 17 16  1  0
 18 17  1  0
 19 12  1  0
 20 19  1  0
 21 20  1  0
 22 21  2  0
 20 23  1  6
 24 23  1  0
 25 24  2  0
 26 24  1  0
 28 27  1  1
 29 28  1  0
 30 29  2  0
 31 28  1  0
 32 31  1  0
 33 32  1  0
 34 32  2  0
 35 33  2  0
 36 34  1  0
 36 35  1  0
 38 37  1  1
 39 38  1  0
 40 39  2  0
 41 38  1  0
 42 41  1  0
 43 42  2  0
 44 42  1  0
 45 43  1  0
 46 44  2  0
 47 46  1  0
 47 45  2  0
 48 47  1  0
 49 39  1  0
 50 49  1  0
 51 50  1  0
 52 51  2  0
 50 53  1  6
 54 53  1  0
 55 54  2  0
 56 54  1  0
 57 51  1  0
 58 57  1  6
 59 58  1  0
 60 59  2  0
 61 58  1  0
 62 61  1  0
 63 61  1  0
 64 59  1  0
 65 64  1  0
 66 65  1  0
 67 66  2  0
 65 68  1  1
 69 68  1  0
 70 69  2  0
 71 69  1  0
 73 72  1  1
 74 73  1  0
 75 74  2  0
 76 73  1  0
 77 76  1  0
 78 77  2  0
 79 77  1  0
 80 78  1  0
 81 79  2  0
 82 81  1  0
 82 80  2  0
 84 83  1  1
 85 84  1  0
 86 85  2  0
 87 84  1  0
 88 87  1  0
 89 88  2  0
 90 88  1  0
 91 85  1  0
 92 91  1  0
 93 92  1  0
 94 93  2  0
 92 95  1  6
 96 95  1  0
 97 96  2  0
 98 96  1  0
100 99  1  1
101100  1  0
102101  2  0
103100  1  0
104103  1  0
105104  2  0
106104  1  0
107101  1  0
108107  1  0
109108  1  0
110109  2  0
108111  1  6
112111  1  0
113112  2  0
114112  1  0
115113  1  0
116114  2  0
117116  1  0
117115  2  0
119118  1  1
120119  1  0
121120  2  0
122119  1  0
123122  1  0
122124  1  6
125123  1  0
126120  1  0
127126  1  0
128127  1  0
129128  2  0
131130  1  1
132131  1  0
133132  2  0
134131  1  0
135134  1  0
136135  1  0
137136  1  0
138137  1  0
M  END
$$$$
