
     RDKit          3D

131124  0  0  0  0  0  0  0  0999 V2000
  -10.5620  100.7570  -13.8720 N   0  0  0  0  0  0  0  0  0  0  0  0
  -11.7070  100.7970  -14.7710 C   0  0  2  0  0  0  0  0  0  0  0  0
  -11.8190  102.1720  -15.4140 C   0  0  0  0  0  0  0  0  0  0  0  0
  -11.7760  103.1930  -14.7200 O   0  0  0  0  0  0  0  0  0  0  0  0
  -13.0080  100.4570  -14.0330 C   0  0  0  0  0  0  0  0  0  0  0  0
  -13.1680   99.0810  -13.3690 C   0  0  0  0  0  0  0  0  0  0  0  0
  -12.8480   97.9600  -14.3530 C   0  0  0  0  0  0  0  0  0  0  0  0
  -12.3570   98.9350  -12.0800 C   0  0  0  0  0  0  0  0  0  0  0  0
  -14.1080  104.6470  -18.3690 N   0  0  0  0  0  0  0  0  0  0  0  0
  -15.4860  104.7440  -18.8620 C   0  0  2  0  0  0  0  0  0  0  0  0
  -15.6450  104.0880  -20.2240 C   0  0  0  0  0  0  0  0  0  0  0  0
  -14.7120  104.0240  -21.0280 O   0  0  0  0  0  0  0  0  0  0  0  0
  -15.7380  106.2570  -18.9360 C   0  0  0  0  0  0  0  0  0  0  0  0
  -14.6390  106.8710  -18.1150 C   0  0  0  0  0  0  0  0  0  0  0  0
  -13.4710  105.9700  -18.2970 C   0  0  0  0  0  0  0  0  0  0  0  0
  -20.4950  105.2620  -25.0000 N   0  0  0  0  0  0  0  0  0  0  0  0
  -21.9540  105.2370  -24.9080 C   0  0  2  0  0  0  0  0  0  0  0  0
  -22.5530  104.8910  -26.2710 C   0  0  0  0  0  0  0  0  0  0  0  0
  -23.1360  105.7150  -26.9770 O   0  0  0  0  0  0  0  0  0  0  0  0
  -22.4810  106.5530  -24.3550 C   0  0  0  0  0  0  0  0  0  0  0  0
  -22.5000  106.5330  -22.8410 C   0  0  0  0  0  0  0  0  0  0  0  0
  -22.1270  107.8380  -22.2120 C   0  0  0  0  0  0  0  0  0  0  0  0
  -22.3740  107.8110  -20.7180 C   0  0  0  0  0  0  0  0  0  0  0  0
  -23.2080  108.9560  -20.2590 N   0  0  0  0  0  0  0  0  0  0  0  0
  -35.0850  105.2020  -22.0050 N   0  0  0  0  0  0  0  0  0  0  0  0
  -34.4550  105.3120  -20.6920 C   0  0  2  0  0  0  0  0  0  0  0  0
  -32.9960  105.7510  -20.8030 C   0  0  0  0  0  0  0  0  0  0  0  0
  -32.4740  106.4090  -19.8930 O   0  0  0  0  0  0  0  0  0  0  0  0
  -34.5910  103.9880  -19.9170 C   0  0  0  0  0  0  0  0  0  0  0  0
  -36.0370  103.5330  -19.9030 C   0  0  0  0  0  0  0  0  0  0  0  0
  -33.7130  102.9090  -20.5270 C   0  0  0  0  0  0  0  0  0  0  0  0
  -32.3210  105.4200  -21.9060 N   0  0  0  0  0  0  0  0  0  0  0  0
  -30.9200  105.7780  -22.0940 C   0  0  2  0  0  0  0  0  0  0  0  0
  -30.7680  106.7960  -23.2200 C   0  0  0  0  0  0  0  0  0  0  0  0
  -30.1670  106.4950  -24.2570 O   0  0  0  0  0  0  0  0  0  0  0  0
  -30.0750  104.5330  -22.3980 C   0  0  0  0  0  0  0  0  0  0  0  0
  -30.0360  103.5470  -21.2430 C   0  0  0  0  0  0  0  0  0  0  0  0
  -29.4900  103.8350  -20.1790 O   0  0  0  0  0  0  0  0  0  0  0  0
  -30.6010  102.3640  -21.4590 N   0  0  0  0  0  0  0  0  0  0  0  0
  -28.8640  109.1390  -23.6320 N   0  0  0  0  0  0  0  0  0  0  0  0
  -27.5040  109.6210  -23.8300 C   0  0  2  0  0  0  0  0  0  0  0  0
  -26.6370  108.6300  -24.5990 C   0  0  0  0  0  0  0  0  0  0  0  0
  -25.4100  108.7780  -24.6160 O   0  0  0  0  0  0  0  0  0  0  0  0
  -26.8520  109.9570  -22.4810 C   0  0  0  0  0  0  0  0  0  0  0  0
  -27.0740  108.8810  -21.4260 C   0  0  0  0  0  0  0  0  0  0  0  0
  -27.9120  107.9800  -21.6420 O   0  0  0  0  0  0  0  0  0  0  0  0
  -26.4030  108.9390  -20.3730 O   0  0  0  0  0  0  0  0  0  0  0  0
  -27.2390  107.6320  -25.2430 N   0  0  0  0  0  0  0  0  0  0  0  0
  -26.4920  106.5890  -25.9320 C   0  0  2  0  0  0  0  0  0  0  0  0
  -26.8010  106.5860  -27.4210 C   0  0  0  0  0  0  0  0  0  0  0  0
  -27.9550  106.7480  -27.8320 O   0  0  0  0  0  0  0  0  0  0  0  0
  -26.7950  105.1990  -25.3520 C   0  0  0  0  0  0  0  0  0  0  0  0
  -26.0140  104.8440  -24.1050 C   0  0  0  0  0  0  0  0  0  0  0  0
  -26.1670  105.5720  -22.9330 C   0  0  0  0  0  0  0  0  0  0  0  0
  -25.1260  103.7740  -24.1030 C   0  0  0  0  0  0  0  0  0  0  0  0
  -25.4600  105.2430  -21.7920 C   0  0  0  0  0  0  0  0  0  0  0  0
  -24.4140  103.4410  -22.9700 C   0  0  0  0  0  0  0  0  0  0  0  0
  -24.5870  104.1780  -21.8180 C   0  0  0  0  0  0  0  0  0  0  0  0
  -23.8760  103.8510  -20.6880 O   0  0  0  0  0  0  0  0  0  0  0  0
  -35.5700   98.8410  -12.1040 N   0  0  0  0  0  0  0  0  0  0  0  0
  -35.0960   99.5260  -10.9140 C   0  0  2  0  0  0  0  0  0  0  0  0
  -35.1010   98.5640   -9.7270 C   0  0  0  0  0  0  0  0  0  0  0  0
  -36.1600   98.0130   -9.3900 O   0  0  0  0  0  0  0  0  0  0  0  0
  -35.9750  100.7390  -10.6160 C   0  0  0  0  0  0  0  0  0  0  0  0
  -35.7920  101.9200  -11.5680 C   0  0  0  0  0  0  0  0  0  0  0  0
  -34.5520  102.7440  -11.2670 C   0  0  0  0  0  0  0  0  0  0  0  0
  -33.7180  102.3590  -10.4470 O   0  0  0  0  0  0  0  0  0  0  0  0
  -34.4310  103.8910  -11.9280 N   0  0  0  0  0  0  0  0  0  0  0  0
  -42.7520  108.1250  -14.5590 N   0  0  0  0  0  0  0  0  0  0  0  0
  -41.8250  108.2020  -15.6790 C   0  0  2  0  0  0  0  0  0  0  0  0
  -41.2550  106.8190  -15.9670 C   0  0  0  0  0  0  0  0  0  0  0  0
  -41.2090  105.9480  -15.0950 O   0  0  0  0  0  0  0  0  0  0  0  0
  -40.6870  109.2010  -15.4040 C   0  0  0  0  0  0  0  0  0  0  0  0
  -39.8490  109.4950  -16.6400 C   0  0  0  0  0  0  0  0  0  0  0  0
  -38.7530  108.9120  -16.7730 O   0  0  0  0  0  0  0  0  0  0  0  0
  -40.2850  110.3150  -17.4780 O   0  0  0  0  0  0  0  0  0  0  0  0
  -38.1200  106.1600  -16.6740 N   0  0  0  0  0  0  0  0  0  0  0  0
  -36.8510  106.0300  -15.9690 C   0  0  2  0  0  0  0  0  0  0  0  0
  -37.0210  105.8880  -14.4620 C   0  0  0  0  0  0  0  0  0  0  0  0
  -36.0310  105.6320  -13.7660 O   0  0  0  0  0  0  0  0  0  0  0  0
  -35.9490  107.2270  -16.2840 C   0  0  0  0  0  0  0  0  0  0  0  0
  -36.5540  108.4450  -15.8910 O   0  0  0  0  0  0  0  0  0  0  0  0
  -33.9600  101.0450  -15.0100 N   0  0  0  0  0  0  0  0  0  0  0  0
  -32.6810  101.6480  -14.6650 C   0  0  2  0  0  0  0  0  0  0  0  0
  -31.9260  102.0260  -15.9330 C   0  0  0  0  0  0  0  0  0  0  0  0
  -31.8640  101.2450  -16.8880 O   0  0  0  0  0  0  0  0  0  0  0  0
  -31.8490  100.6890  -13.8150 C   0  0  0  0  0  0  0  0  0  0  0  0
  -30.8880  100.0040  -14.6020 O   0  0  0  0  0  0  0  0  0  0  0  0
  -31.3680  103.2310  -15.9490 N   0  0  0  0  0  0  0  0  0  0  0  0
  -30.5250  103.6280  -17.0610 C   0  0  2  0  0  0  0  0  0  0  0  0
  -29.1230  103.0550  -16.8810 C   0  0  0  0  0  0  0  0  0  0  0  0
  -28.7100  102.6850  -15.7790 O   0  0  0  0  0  0  0  0  0  0  0  0
  -30.4670  105.1510  -17.1870 C   0  0  0  0  0  0  0  0  0  0  0  0
  -31.7430  105.6880  -17.4960 O   0  0  0  0  0  0  0  0  0  0  0  0
  -28.3920  102.9650  -17.9910 N   0  0  0  0  0  0  0  0  0  0  0  0
  -27.0140  102.4950  -17.9240 C   0  0  2  0  0  0  0  0  0  0  0  0
  -26.0970  103.5880  -17.3920 C   0  0  0  0  0  0  0  0  0  0  0  0
  -25.3390  103.3770  -16.4370 O   0  0  0  0  0  0  0  0  0  0  0  0
  -26.5480  102.0240  -19.3010 C   0  0  0  0  0  0  0  0  0  0  0  0
  -27.3950  100.9560  -19.9850 C   0  0  0  0  0  0  0  0  0  0  0  0
  -26.7570  100.5520  -21.3030 C   0  0  0  0  0  0  0  0  0  0  0  0
  -27.5600   99.7530  -19.0710 C   0  0  0  0  0  0  0  0  0  0  0  0
  -26.1550  104.7680  -18.0070 N   0  0  0  0  0  0  0  0  0  0  0  0
  -25.3840  105.8960  -17.5240 C   0  0  0  0  0  0  0  0  0  0  0  0
  -23.8950  105.7320  -17.7670 C   0  0  0  0  0  0  0  0  0  0  0  0
  -23.4680  105.0440  -18.6910 O   0  0  0  0  0  0  0  0  0  0  0  0
  -23.0980  106.3840  -16.9190 N   0  0  0  0  0  0  0  0  0  0  0  0
  -21.6490  106.3410  -17.0650 C   0  0  2  0  0  0  0  0  0  0  0  0
  -21.1250  104.9720  -16.6480 C   0  0  0  0  0  0  0  0  0  0  0  0
  -20.7040  104.7950  -15.4990 O   0  0  0  0  0  0  0  0  0  0  0  0
  -20.9720  107.4120  -16.2040 C   0  0  0  0  0  0  0  0  0  0  0  0
  -20.9260  108.7850  -16.8700 C   0  0  0  0  0  0  0  0  0  0  0  0
  -21.2980  108.9020  -18.0510 O   0  0  0  0  0  0  0  0  0  0  0  0
  -20.5220  109.7490  -16.2010 O   0  0  0  0  0  0  0  0  0  0  0  0
  -21.1540  103.9960  -17.5480 N   0  0  0  0  0  0  0  0  0  0  0  0
  -20.6030  102.6930  -17.2260 C   0  0  2  0  0  0  0  0  0  0  0  0
  -19.0830  102.7120  -17.3290 C   0  0  0  0  0  0  0  0  0  0  0  0
  -18.4910  103.5620  -17.9970 O   0  0  0  0  0  0  0  0  0  0  0  0
  -21.1690  101.6260  -18.1600 C   0  0  0  0  0  0  0  0  0  0  0  0
  -22.4610  100.9830  -17.6870 C   0  0  0  0  0  0  0  0  0  0  0  0
  -23.1310   99.8360  -18.9060 S   0  0  0  0  0  0  0  0  0  0  0  0
  -22.5990  100.6240  -20.4300 C   0  0  0  0  0  0  0  0  0  0  0  0
  -18.4480  101.7500  -16.6630 N   0  0  0  0  0  0  0  0  0  0  0  0
  -17.0010  101.6160  -16.7290 C   0  0  2  0  0  0  0  0  0  0  0  0
  -16.6240  100.1430  -16.7110 C   0  0  0  0  0  0  0  0  0  0  0  0
  -17.2850   99.3250  -16.0650 O   0  0  0  0  0  0  0  0  0  0  0  0
  -16.3080  102.3700  -15.5810 C   0  0  0  0  0  0  0  0  0  0  0  0
  -17.1040  102.4370  -14.2880 C   0  0  0  0  0  0  0  0  0  0  0  0
  -16.5730  103.4950  -13.3380 C   0  0  0  0  0  0  0  0  0  0  0  0
  -15.5830  104.1720  -13.6920 O   0  0  0  0  0  0  0  0  0  0  0  0
  -17.1490  103.6570  -12.2420 O   0  0  0  0  0  0  0  0  0  0  0  0
  2  1  1  1
  3  2  1  0
  4  3  2  0
  5  2  1  0
  6  5  1  0
  7  6  1  0
  8  6  1  0
 10  9  1  0
 10 11  1  6
 12 11  2  0
 13 10  1  0
 14 13  1  0
 15 14  1  0
 15  9  1  0
 17 16  1  6
 18 17  1  0
 19 18  2  0
 20 17  1  0
 21 20  1  0
 22 21  1  0
 23 22  1  0
 24 23  1  0
 26 25  1  6
 27 26  1  0
 28 27  2  0
 29 26  1  0
 30 29  1  0
 31 29  1  0
 32 27  1  0
 33 32  1  0
 34 33  1  0
 35 34  2  0
 33 36  1  6
 37 36  1  0
 38 37  2  0
 39 37  1  0
 41 40  1  1
 42 41  1  0
 43 42  2  0
 44 41  1  0
 45 44  1  0
 46 45  2  0
 47 45  1  0
 48 42  1  0
 49 48  1  0
 50 49  1  0
 51 50  2  0
 49 52  1  1
 53 52  1  0
 54 53  2  0
 55 53  1  0
 56 54  1  0
 57 55  2  0
 58 57  1  0
 58 56  2  0
 59 58  1  0
 61 60  1  6
 62 61  1  0
 63 62  2  0
 64 61  1  0
 65 64  1  0
 66 65  1  0
 67 66  2  0
 68 66  1  0
 70 69  1  1
 71 70  1  0
 72 71  2  0
 73 70  1  0
 74 73  1  0
 75 74  2  0
 76 74  1  0
 78 77  1  6
 79 78  1  0
 80 79  2  0
 81 78  1  0
 82 81  1  0
 84 83  1  6
 85 84  1  0
 86 85  2  0
 87 84  1  0
 88 87  1  0
 89 85  1  0
 90 89  1  0
 91 90  1  0
 92 91  2  0
 90 93  1  1
 94 93  1  0
 95 91  1  0
 96 95  1  0
 97 96  1  0
 98 97  2  0
 96 99  1  6
100 99  1  0
101100  1  0
102100  1  0
103 97  1  0
104103  1  0
105104  1  0
106105  2  0
107105  1  0
108107  1  0
109108  1  0
110109  2  0
108111  1  1
112111  1  0
113112  2  0
114112  1  0
115109  1  0
116115  1  0
117116  1  0
118117  2  0
116119  1  6
120119  1  0
121120  1  0
122121  1  0
123117  1  0
124123  1  0
125124  1  0
126125  2  0
124127  1  1
128127  1  0
129128  1  0
130129  2  0
131129  1  0
M  END
$$$$
