
     RDKit          3D

126123  0  0  0  0  0  0  0  0999 V2000
  103.3840   94.8190  111.3270 N   0  0  0  0  0  0  0  0  0  0  0  0
  104.6920   94.8190  110.6980 C   0  0  2  0  0  0  0  0  0  0  0  0
  105.6830   95.5870  111.5650 C   0  0  0  0  0  0  0  0  0  0  0  0
  105.3620   96.0710  112.6520 O   0  0  0  0  0  0  0  0  0  0  0  0
  104.6140   95.4220  109.3030 C   0  0  0  0  0  0  0  0  0  0  0  0
  103.4890   94.8730  108.4830 C   0  0  0  0  0  0  0  0  0  0  0  0
  103.8770   94.7930  107.0330 C   0  0  0  0  0  0  0  0  0  0  0  0
  104.6490   95.9540  106.6160 N   0  0  0  0  0  0  0  0  0  0  0  0
  104.2050   96.8710  105.7670 C   0  0  0  0  0  0  0  0  0  0  0  0
  102.9910   96.7590  105.2490 N   0  0  0  0  0  0  0  0  0  0  0  0
  104.9740   97.8980  105.4380 N   0  0  0  0  0  0  0  0  0  0  0  0
  105.2780   99.5980  110.8380 N   0  0  0  0  0  0  0  0  0  0  0  0
  103.9240  100.0310  111.1290 C   0  0  2  0  0  0  0  0  0  0  0  0
  103.7270  100.3790  112.5910 C   0  0  0  0  0  0  0  0  0  0  0  0
  102.7180  101.0050  112.9260 O   0  0  0  0  0  0  0  0  0  0  0  0
  102.9510   98.9490  110.6860 C   0  0  0  0  0  0  0  0  0  0  0  0
  102.3600   99.2300  109.3270 C   0  0  0  0  0  0  0  0  0  0  0  0
  101.3760   98.1820  108.8860 C   0  0  0  0  0  0  0  0  0  0  0  0
  100.3620   97.9810  109.5670 O   0  0  0  0  0  0  0  0  0  0  0  0
  101.6160   97.5580  107.8340 O   0  0  0  0  0  0  0  0  0  0  0  0
  100.0380   82.6180  107.3990 N   0  0  0  0  0  0  0  0  0  0  0  0
   98.9100   83.4500  107.0070 C   0  0  2  0  0  0  0  0  0  0  0  0
   97.8200   83.4450  108.0660 C   0  0  0  0  0  0  0  0  0  0  0  0
   96.6430   83.6530  107.7550 O   0  0  0  0  0  0  0  0  0  0  0  0
   98.3560   83.0050  105.6560 C   0  0  0  0  0  0  0  0  0  0  0  0
   99.3160   83.2500  104.5150 C   0  0  0  0  0  0  0  0  0  0  0  0
   99.5680   84.5390  104.0630 C   0  0  0  0  0  0  0  0  0  0  0  0
   99.9740   82.1970  103.8960 C   0  0  0  0  0  0  0  0  0  0  0  0
  100.4450   84.7740  103.0220 C   0  0  0  0  0  0  0  0  0  0  0  0
  100.8550   82.4210  102.8550 C   0  0  0  0  0  0  0  0  0  0  0  0
  101.0870   83.7120  102.4210 C   0  0  0  0  0  0  0  0  0  0  0  0
  101.9630   83.9470  101.3850 O   0  0  0  0  0  0  0  0  0  0  0  0
   94.1700   91.6990  109.0240 N   0  0  0  0  0  0  0  0  0  0  0  0
   94.0780   93.1070  109.3650 C   0  0  2  0  0  0  0  0  0  0  0  0
   93.0460   93.7290  108.4470 C   0  0  0  0  0  0  0  0  0  0  0  0
   93.0390   93.4440  107.2490 O   0  0  0  0  0  0  0  0  0  0  0  0
   95.4350   93.7940  109.2050 C   0  0  0  0  0  0  0  0  0  0  0  0
   95.9610   93.9690  107.8000 C   0  0  0  0  0  0  0  0  0  0  0  0
   96.5670   92.9320  107.1300 C   0  0  0  0  0  0  0  0  0  0  0  0
   95.9760   95.2160  107.2030 C   0  0  0  0  0  0  0  0  0  0  0  0
   97.0910   93.1070  105.8740 C   0  0  0  0  0  0  0  0  0  0  0  0
   96.5030   95.4010  105.9530 C   0  0  0  0  0  0  0  0  0  0  0  0
   97.0590   94.3420  105.2940 C   0  0  0  0  0  0  0  0  0  0  0  0
   97.5880   94.5100  104.0420 O   0  0  0  0  0  0  0  0  0  0  0  0
   96.0080   89.5400  104.8540 N   0  0  0  0  0  0  0  0  0  0  0  0
   97.0260   88.8110  105.5860 C   0  0  2  0  0  0  0  0  0  0  0  0
   98.3860   89.4760  105.4530 C   0  0  0  0  0  0  0  0  0  0  0  0
   98.7310   90.0250  104.4040 O   0  0  0  0  0  0  0  0  0  0  0  0
   97.1100   87.3670  105.0900 C   0  0  0  0  0  0  0  0  0  0  0  0
   97.1730   87.3250  103.6750 O   0  0  0  0  0  0  0  0  0  0  0  0
   99.1590   89.4060  106.5370 N   0  0  0  0  0  0  0  0  0  0  0  0
  100.5540   89.8300  106.5160 C   0  0  2  0  0  0  0  0  0  0  0  0
  101.4480   88.8750  105.7280 C   0  0  0  0  0  0  0  0  0  0  0  0
  102.0750   89.2760  104.7420 O   0  0  0  0  0  0  0  0  0  0  0  0
  101.0480   90.0080  107.9480 C   0  0  0  0  0  0  0  0  0  0  0  0
  100.4430   91.1890  108.6760 C   0  0  0  0  0  0  0  0  0  0  0  0
   99.7860   92.1860  107.9880 C   0  0  0  0  0  0  0  0  0  0  0  0
  100.4970   91.2880  110.0540 C   0  0  0  0  0  0  0  0  0  0  0  0
   99.2590   93.2690  108.6470 C   0  0  0  0  0  0  0  0  0  0  0  0
   99.9520   92.3590  110.7160 C   0  0  0  0  0  0  0  0  0  0  0  0
   99.3290   93.3410  110.0060 C   0  0  0  0  0  0  0  0  0  0  0  0
   98.7790   94.4130  110.6550 O   0  0  0  0  0  0  0  0  0  0  0  0
  101.5260   87.6120  106.1350 N   0  0  0  0  0  0  0  0  0  0  0  0
  102.3240   86.6800  105.3570 C   0  0  0  0  0  0  0  0  0  0  0  0
  103.7940   86.6070  105.7190 C   0  0  0  0  0  0  0  0  0  0  0  0
  104.6550   86.9020  104.8850 O   0  0  0  0  0  0  0  0  0  0  0  0
  107.2080   85.3630  106.1510 N   0  0  0  0  0  0  0  0  0  0  0  0
  108.3530   84.5090  105.8970 C   0  0  2  0  0  0  0  0  0  0  0  0
  109.4510   84.8140  106.9120 C   0  0  0  0  0  0  0  0  0  0  0  0
  109.4320   85.8630  107.5580 O   0  0  0  0  0  0  0  0  0  0  0  0
  108.8620   84.7380  104.4780 C   0  0  0  0  0  0  0  0  0  0  0  0
  107.7680   84.7950  103.4360 C   0  0  0  0  0  0  0  0  0  0  0  0
  107.4910   83.4440  102.8190 C   0  0  0  0  0  0  0  0  0  0  0  0
  107.5470   82.4190  103.4940 O   0  0  0  0  0  0  0  0  0  0  0  0
  107.1950   83.4340  101.5260 N   0  0  0  0  0  0  0  0  0  0  0  0
  112.6710   85.2980  106.1850 N   0  0  0  0  0  0  0  0  0  0  0  0
  113.7480   86.0440  105.5540 C   0  0  2  0  0  0  0  0  0  0  0  0
  113.4570   87.5320  105.4390 C   0  0  0  0  0  0  0  0  0  0  0  0
  114.2040   88.2430  104.7620 O   0  0  0  0  0  0  0  0  0  0  0  0
  114.0320   85.4760  104.1620 C   0  0  2  0  0  0  0  0  0  0  0  0
  115.1990   86.1050  103.6170 O   0  0  0  0  0  0  0  0  0  0  0  0
  112.8490   85.7110  103.2360 C   0  0  0  0  0  0  0  0  0  0  0  0
  112.4050   88.0180  106.0860 N   0  0  0  0  0  0  0  0  0  0  0  0
  111.9170   89.3630  105.8310 C   0  0  2  0  0  0  0  0  0  0  0  0
  112.9030   90.4140  106.3300 C   0  0  0  0  0  0  0  0  0  0  0  0
  113.8490   90.1280  107.0640 O   0  0  0  0  0  0  0  0  0  0  0  0
  110.5630   89.5650  106.4970 C   0  0  0  0  0  0  0  0  0  0  0  0
  109.4520   88.8780  105.7530 C   0  0  0  0  0  0  0  0  0  0  0  0
  109.0520   89.3190  104.6830 O   0  0  0  0  0  0  0  0  0  0  0  0
  108.9430   87.7920  106.3160 N   0  0  0  0  0  0  0  0  0  0  0  0
  112.6730   91.6500  105.9030 N   0  0  0  0  0  0  0  0  0  0  0  0
  113.4790   92.7580  106.3640 C   0  0  0  0  0  0  0  0  0  0  0  0
  113.2740   93.0290  107.8380 C   0  0  0  0  0  0  0  0  0  0  0  0
  112.3450   92.5360  108.4750 O   0  0  0  0  0  0  0  0  0  0  0  0
  114.1790   93.8330  108.3980 N   0  0  0  0  0  0  0  0  0  0  0  0
  114.0870   94.1600  109.8130 C   0  0  2  0  0  0  0  0  0  0  0  0
  112.8090   94.9210  110.1100 C   0  0  0  0  0  0  0  0  0  0  0  0
  112.3090   94.8810  111.2390 O   0  0  0  0  0  0  0  0  0  0  0  0
  115.3320   94.9500  110.2610 C   0  0  0  0  0  0  0  0  0  0  0  0
  115.3910   96.2950  109.5650 C   0  0  0  0  0  0  0  0  0  0  0  0
  115.3440   95.1180  111.7690 C   0  0  0  0  0  0  0  0  0  0  0  0
  112.2530   95.5990  109.1150 N   0  0  0  0  0  0  0  0  0  0  0  0
  110.9980   96.3010  109.2410 C   0  0  0  0  0  0  0  0  0  0  0  0
  109.7730   95.4970  108.8730 C   0  0  0  0  0  0  0  0  0  0  0  0
  108.6790   96.0640  108.8130 O   0  0  0  0  0  0  0  0  0  0  0  0
  109.9160   94.1980  108.6070 N   0  0  0  0  0  0  0  0  0  0  0  0
  108.7800   93.3650  108.2410 C   0  0  2  0  0  0  0  0  0  0  0  0
  108.6060   92.1310  109.1010 C   0  0  0  0  0  0  0  0  0  0  0  0
  107.5940   91.4410  108.9460 O   0  0  0  0  0  0  0  0  0  0  0  0
  108.8740   92.9220  106.7790 C   0  0  0  0  0  0  0  0  0  0  0  0
  108.5930   94.0310  105.8200 C   0  0  0  0  0  0  0  0  0  0  0  0
  109.4330   95.1210  105.7320 C   0  0  0  0  0  0  0  0  0  0  0  0
  107.4890   93.9870  104.9990 C   0  0  0  0  0  0  0  0  0  0  0  0
  109.1810   96.1360  104.8650 C   0  0  0  0  0  0  0  0  0  0  0  0
  107.2260   94.9980  104.1270 C   0  0  0  0  0  0  0  0  0  0  0  0
  108.0760   96.0720  104.0630 C   0  0  0  0  0  0  0  0  0  0  0  0
  107.8210   97.0930  103.1820 O   0  0  0  0  0  0  0  0  0  0  0  0
  109.5490   91.8110  109.9680 N   0  0  0  0  0  0  0  0  0  0  0  0
  109.2850   90.8010  110.9710 C   0  0  2  0  0  0  0  0  0  0  0  0
  108.0670   91.2210  111.7770 C   0  0  0  0  0  0  0  0  0  0  0  0
  107.9510   92.3950  112.1470 O   0  0  0  0  0  0  0  0  0  0  0  0
  110.4840   90.6040  111.8980 C   0  0  0  0  0  0  0  0  0  0  0  0
  111.5600   89.6650  111.3870 C   0  0  0  0  0  0  0  0  0  0  0  0
  112.3110   90.1790  110.1970 C   0  0  0  0  0  0  0  0  0  0  0  0
  112.2630   89.5880  109.1270 O   0  0  0  0  0  0  0  0  0  0  0  0
  113.0340   91.2690  110.3790 N   0  0  0  0  0  0  0  0  0  0  0  0
  2  1  1  1
  3  2  1  0
  4  3  2  0
  5  2  1  0
  6  5  1  0
  7  6  1  0
  8  7  1  0
  9  8  1  0
 10  9  1  0
 11  9  2  0
 13 12  1  1
 14 13  1  0
 15 14  2  0
 16 13  1  0
 17 16  1  0
 18 17  1  0
 19 18  2  0
 20 18  1  0
 22 21  1  1
 23 22  1  0
 24 23  2  0
 25 22  1  0
 26 25  1  0
 27 26  2  0
 28 26  1  0
 29 27  1  0
 30 28  2  0
 31 30  1  0
 31 29  2  0
 32 31  1  0
 34 33  1  6
 35 34  1  0
 36 35  2  0
 37 34  1  0
 38 37  1  0
 39 38  2  0
 40 38  1  0
 41 39  1  0
 42 40  2  0
 43 42  1  0
 43 41  2  0
 44 43  1  0
 46 45  1  6
 47 46  1  0
 48 47  2  0
 49 46  1  0
 50 49  1  0
 51 47  1  0
 52 51  1  0
 53 52  1  0
 54 53  2  0
 52 55  1  1
 56 55  1  0
 57 56  2  0
 58 56  1  0
 59 57  1  0
 60 58  2  0
 61 60  1  0
 61 59  2  0
 62 61  1  0
 63 53  1  0
 64 63  1  0
 65 64  1  0
 66 65  2  0
 68 67  1  1
 69 68  1  0
 70 69  2  0
 71 68  1  0
 72 71  1  0
 73 72  1  0
 74 73  2  0
 75 73  1  0
 77 76  1  6
 78 77  1  0
 79 78  2  0
 80 77  1  0
 81 80  1  0
 80 82  1  6
 83 78  1  0
 84 83  1  0
 85 84  1  0
 86 85  2  0
 84 87  1  1
 88 87  1  0
 89 88  2  0
 90 88  1  0
 91 85  1  0
 92 91  1  0
 93 92  1  0
 94 93  2  0
 95 93  1  0
 96 95  1  6
 97 96  1  0
 98 97  2  0
 99 96  1  0
100 99  1  0
101 99  1  0
102 97  1  0
103102  1  0
104103  1  0
105104  2  0
106104  1  0
107106  1  0
108107  1  0
109108  2  0
107110  1  6
111110  1  0
112111  2  0
113111  1  0
114112  1  0
115113  2  0
116115  1  0
116114  2  0
117116  1  0
118108  1  0
119118  1  0
120119  1  0
121120  2  0
119122  1  1
123122  1  0
124123  1  0
125124  2  0
126124  1  0
M  END
$$$$
