
     RDKit          3D

100 93  0  0  0  0  0  0  0  0999 V2000
  245.2940  201.6610  139.7340 N   0  0  0  0  0  0  0  0  0  0  0  0
  244.2230  202.2490  138.9480 C   0  0  0  0  0  0  0  0  0  0  0  0
  242.9690  202.5370  139.7440 C   0  0  0  0  0  0  0  0  0  0  0  0
  241.8580  202.3590  139.2310 O   0  0  0  0  0  0  0  0  0  0  0  0
  243.1210  202.9770  140.9880 N   0  0  0  0  0  0  0  0  0  0  0  0
  242.0080  203.2910  141.8720 C   0  0  2  0  0  0  0  0  0  0  0  0
  241.6300  204.7630  141.8280 C   0  0  0  0  0  0  0  0  0  0  0  0
  240.7020  205.1730  142.5300 O   0  0  0  0  0  0  0  0  0  0  0  0
  242.3500  202.8870  143.3080 C   0  0  0  0  0  0  0  0  0  0  0  0
  242.7930  201.4410  143.4520 C   0  0  0  0  0  0  0  0  0  0  0  0
  241.7460  200.4880  142.9000 C   0  0  0  0  0  0  0  0  0  0  0  0
  240.4260  200.7630  143.4560 N   0  0  0  0  0  0  0  0  0  0  0  0
  239.2870  200.6880  142.7810 C   0  0  0  0  0  0  0  0  0  0  0  0
  239.2440  200.2300  141.5400 N   0  0  0  0  0  0  0  0  0  0  0  0
  238.1560  201.0550  143.3760 N   0  0  0  0  0  0  0  0  0  0  0  0
  242.3330  205.5560  141.0200 N   0  0  0  0  0  0  0  0  0  0  0  0
  242.4350  206.9950  141.2340 C   0  0  2  0  0  0  0  0  0  0  0  0
  241.0710  207.6570  141.4190 C   0  0  0  0  0  0  0  0  0  0  0  0
  240.7940  208.2600  142.4610 O   0  0  0  0  0  0  0  0  0  0  0  0
  243.1860  207.6140  140.0550 C   0  0  0  0  0  0  0  0  0  0  0  0
  243.5800  209.3630  140.2060 S   0  0  0  0  0  0  0  0  0  0  0  0
  240.2070  207.5610  140.4150 N   0  0  0  0  0  0  0  0  0  0  0  0
  238.9570  208.3140  140.3790 C   0  0  2  0  0  0  0  0  0  0  0  0
  237.8390  207.7160  141.2370 C   0  0  0  0  0  0  0  0  0  0  0  0
  236.6690  207.9890  140.9490 O   0  0  0  0  0  0  0  0  0  0  0  0
  238.4780  208.4540  138.9330 C   0  0  0  0  0  0  0  0  0  0  0  0
  239.3130  209.4120  138.1090 C   0  0  0  0  0  0  0  0  0  0  0  0
  238.7520  210.8160  138.1180 C   0  0  0  0  0  0  0  0  0  0  0  0
  237.7040  211.0810  137.5340 O   0  0  0  0  0  0  0  0  0  0  0  0
  239.4410  211.7240  138.7940 N   0  0  0  0  0  0  0  0  0  0  0  0
  238.1300  206.9270  142.2690 N   0  0  0  0  0  0  0  0  0  0  0  0
  237.0760  206.3850  143.1170 C   0  0  2  0  0  0  0  0  0  0  0  0
  237.5180  206.3480  144.5710 C   0  0  0  0  0  0  0  0  0  0  0  0
  238.6780  206.0590  144.8730 O   0  0  0  0  0  0  0  0  0  0  0  0
  236.6790  204.9720  142.6720 C   0  0  0  0  0  0  0  0  0  0  0  0
  235.4580  204.4100  143.3860 C   0  0  0  0  0  0  0  0  0  0  0  0
  234.0400  205.5200  143.4010 S   0  0  0  0  0  0  0  0  0  0  0  0
  233.0290  204.7500  144.6600 C   0  0  0  0  0  0  0  0  0  0  0  0
  236.3040  217.2400  137.2660 N   0  0  0  0  0  0  0  0  0  0  0  0
  236.5270  218.3790  136.3920 C   0  0  2  0  0  0  0  0  0  0  0  0
  235.1910  219.0460  136.0690 C   0  0  0  0  0  0  0  0  0  0  0  0
  234.1990  218.3530  135.8250 O   0  0  0  0  0  0  0  0  0  0  0  0
  237.2060  217.9390  135.0990 C   0  0  2  0  0  0  0  0  0  0  0  0
  238.4250  217.2520  135.4020 O   0  0  0  0  0  0  0  0  0  0  0  0
  237.5070  219.1380  134.2200 C   0  0  0  0  0  0  0  0  0  0  0  0
  249.8030  213.7450  123.0650 N   0  0  0  0  0  0  0  0  0  0  0  0
  248.4190  213.4330  123.3970 C   0  0  2  0  0  0  0  0  0  0  0  0
  247.8320  212.4180  122.4230 C   0  0  0  0  0  0  0  0  0  0  0  0
  246.6340  212.4450  122.1350 O   0  0  0  0  0  0  0  0  0  0  0  0
  247.5760  214.7070  123.4170 C   0  0  0  0  0  0  0  0  0  0  0  0
  246.3140  214.5990  124.2490 C   0  0  0  0  0  0  0  0  0  0  0  0
  245.6040  215.9350  124.3410 C   0  0  0  0  0  0  0  0  0  0  0  0
  246.1970  216.8040  125.3510 N   0  0  0  0  0  0  0  0  0  0  0  0
  245.7270  216.9670  126.5810 C   0  0  0  0  0  0  0  0  0  0  0  0
  244.6940  216.2710  127.0280 N   0  0  0  0  0  0  0  0  0  0  0  0
  246.3220  217.8360  127.3910 N   0  0  0  0  0  0  0  0  0  0  0  0
  246.8870  204.2200  131.8520 N   0  0  0  0  0  0  0  0  0  0  0  0
  246.1290  204.9640  132.8540 C   0  0  2  0  0  0  0  0  0  0  0  0
  247.0100  205.9750  133.5790 C   0  0  0  0  0  0  0  0  0  0  0  0
  246.5840  207.1070  133.8410 O   0  0  0  0  0  0  0  0  0  0  0  0
  245.4910  204.0000  133.8500 C   0  0  0  0  0  0  0  0  0  0  0  0
  244.7730  204.7060  134.8450 O   0  0  0  0  0  0  0  0  0  0  0  0
  247.7060  208.8920  131.1660 N   0  0  0  0  0  0  0  0  0  0  0  0
  246.5280  209.7230  130.9630 C   0  0  2  0  0  0  0  0  0  0  0  0
  246.0230  210.3980  132.2310 C   0  0  0  0  0  0  0  0  0  0  0  0
  245.1590  211.2750  132.1320 O   0  0  0  0  0  0  0  0  0  0  0  0
  245.4010  208.8820  130.3620 C   0  0  0  0  0  0  0  0  0  0  0  0
  245.7530  208.4100  129.0740 O   0  0  0  0  0  0  0  0  0  0  0  0
  246.5240  210.0280  133.4090 N   0  0  0  0  0  0  0  0  0  0  0  0
  246.1290  210.7300  134.6260 C   0  0  2  0  0  0  0  0  0  0  0  0
  247.1730  211.7230  135.1160 C   0  0  0  0  0  0  0  0  0  0  0  0
  246.8070  212.7460  135.7030 O   0  0  0  0  0  0  0  0  0  0  0  0
  245.8250  209.7270  135.7450 C   0  0  2  0  0  0  0  0  0  0  0  0
  245.1530  210.3960  136.8190 O   0  0  0  0  0  0  0  0  0  0  0  0
  247.0980  209.0910  136.2690 C   0  0  0  0  0  0  0  0  0  0  0  0
  245.8380  218.8160  132.2280 N   0  0  0  0  0  0  0  0  0  0  0  0
  244.4930  218.7980  131.6700 C   0  0  2  0  0  0  0  0  0  0  0  0
  244.2230  219.9050  130.6530 C   0  0  0  0  0  0  0  0  0  0  0  0
  243.0670  220.0610  130.2490 O   0  0  0  0  0  0  0  0  0  0  0  0
  243.4670  218.8940  132.8010 C   0  0  0  0  0  0  0  0  0  0  0  0
  243.6380  220.0890  133.5400 O   0  0  0  0  0  0  0  0  0  0  0  0
  245.2210  220.6760  130.2250 N   0  0  0  0  0  0  0  0  0  0  0  0
  244.9170  221.8700  129.4450 C   0  0  2  0  0  0  0  0  0  0  0  0
  246.1140  222.2720  128.5970 C   0  0  0  0  0  0  0  0  0  0  0  0
  247.2430  221.8300  128.8230 O   0  0  0  0  0  0  0  0  0  0  0  0
  244.4980  223.0330  130.3510 C   0  0  2  0  0  0  0  0  0  0  0  0
  243.9080  224.0700  129.5570 O   0  0  0  0  0  0  0  0  0  0  0  0
  245.6960  223.5940  131.1110 C   0  0  0  0  0  0  0  0  0  0  0  0
  240.9420  219.5660  122.7720 N   0  0  0  0  0  0  0  0  0  0  0  0
  241.6330  218.5600  123.5650 C   0  0  2  0  0  0  0  0  0  0  0  0
  241.0040  217.1850  123.3730 C   0  0  0  0  0  0  0  0  0  0  0  0
  239.7940  217.0490  123.1710 O   0  0  0  0  0  0  0  0  0  0  0  0
  241.6030  218.9340  125.0460 C   0  0  0  0  0  0  0  0  0  0  0  0
  242.3680  220.1930  125.4530 C   0  0  0  0  0  0  0  0  0  0  0  0
  242.1040  220.5220  126.9100 C   0  0  0  0  0  0  0  0  0  0  0  0
  243.8590  220.0230  125.2060 C   0  0  0  0  0  0  0  0  0  0  0  0
  241.8480  216.1560  123.4360 N   0  0  0  0  0  0  0  0  0  0  0  0
  241.4190  214.7820  123.3050 C   0  0  0  0  0  0  0  0  0  0  0  0
  241.4610  214.2200  121.9010 C   0  0  0  0  0  0  0  0  0  0  0  0
  241.4140  212.9960  121.7410 O   0  0  0  0  0  0  0  0  0  0  0  0
  2  1  1  0
  3  2  1  0
  4  3  2  0
  5  3  1  0
  6  5  1  0
  7  6  1  0
  8  7  2  0
  6  9  1  1
 10  9  1  0
 11 10  1  0
 12 11  1  0
 13 12  1  0
 14 13  1  0
 15 13  2  0
 16  7  1  0
 17 16  1  0
 18 17  1  0
 19 18  2  0
 17 20  1  6
 21 20  1  0
 22 18  1  0
 23 22  1  0
 24 23  1  0
 25 24  2  0
 23 26  1  6
 27 26  1  0
 28 27  1  0
 29 28  2  0
 30 28  1  0
 31 24  1  0
 32 31  1  0
 33 32  1  0
 34 33  2  0
 32 35  1  6
 36 35  1  0
 37 36  1  0
 38 37  1  0
 40 39  1  1
 41 40  1  0
 42 41  2  0
 43 40  1  0
 44 43  1  0
 43 45  1  6
 47 46  1  6
 48 47  1  0
 49 48  2  0
 50 47  1  0
 51 50  1  0
 52 51  1  0
 53 52  1  0
 54 53  1  0
 55 54  1  0
 56 54  2  0
 58 57  1  6
 59 58  1  0
 60 59  2  0
 61 58  1  0
 62 61  1  0
 64 63  1  1
 65 64  1  0
 66 65  2  0
 67 64  1  0
 68 67  1  0
 69 65  1  0
 70 69  1  6
 71 70  1  0
 72 71  2  0
 73 70  1  0
 74 73  1  0
 73 75  1  1
 77 76  1  1
 78 77  1  0
 79 78  2  0
 80 77  1  0
 81 80  1  0
 82 78  1  0
 83 82  1  1
 84 83  1  0
 85 84  2  0
 86 83  1  0
 87 86  1  0
 86 88  1  6
 90 89  1  6
 91 90  1  0
 92 91  2  0
 93 90  1  0
 94 93  1  0
 95 94  1  0
 96 94  1  0
 97 91  1  0
 98 97  1  0
 99 98  1  0
100 99  2  0
M  END
$$$$
