
     RDKit          3D

109101  0  0  0  0  0  0  0  0999 V2000
  150.8640  225.2600  242.6560 N   0  0  0  0  0  0  0  0  0  0  0  0
  149.9830  224.2950  242.0250 C   0  0  0  0  0  0  0  0  0  0  0  0
  150.5330  223.7180  240.7350 C   0  0  0  0  0  0  0  0  0  0  0  0
  149.8520  223.7430  239.7070 O   0  0  0  0  0  0  0  0  0  0  0  0
  151.7690  223.2140  240.7640 N   0  0  0  0  0  0  0  0  0  0  0  0
  152.4630  222.7840  239.5550 C   0  0  2  0  0  0  0  0  0  0  0  0
  152.8050  221.2920  239.5400 C   0  0  0  0  0  0  0  0  0  0  0  0
  153.6640  220.8810  238.7540 O   0  0  0  0  0  0  0  0  0  0  0  0
  153.7460  223.6020  239.3830 C   0  0  0  0  0  0  0  0  0  0  0  0
  153.5720  225.1230  239.3680 C   0  0  0  0  0  0  0  0  0  0  0  0
  153.1800  225.6680  238.0090 C   0  0  0  0  0  0  0  0  0  0  0  0
  151.8780  225.1990  237.5540 N   0  0  0  0  0  0  0  0  0  0  0  0
  151.3340  225.5290  236.3910 C   0  0  0  0  0  0  0  0  0  0  0  0
  151.9550  226.3300  235.5400 N   0  0  0  0  0  0  0  0  0  0  0  0
  150.1370  225.0460  236.0730 N   0  0  0  0  0  0  0  0  0  0  0  0
  152.1670  220.4580  240.3710 N   0  0  0  0  0  0  0  0  0  0  0  0
  152.5430  219.0420  240.3990 C   0  0  2  0  0  0  0  0  0  0  0  0
  152.2380  218.3100  239.0990 C   0  0  0  0  0  0  0  0  0  0  0  0
  153.0850  217.5700  238.5870 O   0  0  0  0  0  0  0  0  0  0  0  0
  151.8840  218.3090  241.5690 C   0  0  0  0  0  0  0  0  0  0  0  0
  152.6660  218.5870  243.1490 S   0  0  0  0  0  0  0  0  0  0  0  0
  151.0540  218.4900  238.5360 N   0  0  0  0  0  0  0  0  0  0  0  0
  150.6580  217.6230  237.4300 C   0  0  2  0  0  0  0  0  0  0  0  0
  151.1690  218.2000  236.1120 C   0  0  0  0  0  0  0  0  0  0  0  0
  150.4230  218.4560  235.1690 O   0  0  0  0  0  0  0  0  0  0  0  0
  149.1440  217.4500  237.4180 C   0  0  0  0  0  0  0  0  0  0  0  0
  148.5810  216.8710  238.7100 C   0  0  0  0  0  0  0  0  0  0  0  0
  149.1380  215.5040  239.0360 C   0  0  0  0  0  0  0  0  0  0  0  0
  149.5730  214.7700  238.1510 O   0  0  0  0  0  0  0  0  0  0  0  0
  149.1330  215.1560  240.3150 N   0  0  0  0  0  0  0  0  0  0  0  0
  152.4850  218.3910  236.0690 N   0  0  0  0  0  0  0  0  0  0  0  0
  153.1720  218.8660  234.8790 C   0  0  2  0  0  0  0  0  0  0  0  0
  154.6510  218.9820  235.2010 C   0  0  0  0  0  0  0  0  0  0  0  0
  155.0400  219.1360  236.3600 O   0  0  0  0  0  0  0  0  0  0  0  0
  152.6210  220.2110  234.4000 C   0  0  0  0  0  0  0  0  0  0  0  0
  153.4240  220.8620  233.2870 C   0  0  0  0  0  0  0  0  0  0  0  0
  153.4290  219.8810  231.7820 S   0  0  0  0  0  0  0  0  0  0  0  0
  151.7790  220.1980  231.1970 C   0  0  0  0  0  0  0  0  0  0  0  0
  153.9030  211.0900  244.6030 N   0  0  0  0  0  0  0  0  0  0  0  0
  152.6070  211.7550  244.6960 C   0  0  2  0  0  0  0  0  0  0  0  0
  152.4950  212.9040  243.7020 C   0  0  0  0  0  0  0  0  0  0  0  0
  151.4840  213.0440  243.0070 O   0  0  0  0  0  0  0  0  0  0  0  0
  152.3840  212.2630  246.1170 C   0  0  2  0  0  0  0  0  0  0  0  0
  152.3120  211.1530  247.0180 O   0  0  0  0  0  0  0  0  0  0  0  0
  151.0990  213.0670  246.1990 C   0  0  0  0  0  0  0  0  0  0  0  0
  148.4480  207.7710  238.3560 N   0  0  0  0  0  0  0  0  0  0  0  0
  147.7900  206.7110  239.0960 C   0  0  2  0  0  0  0  0  0  0  0  0
  147.3240  205.6210  238.1370 C   0  0  0  0  0  0  0  0  0  0  0  0
  146.7870  205.9310  237.0680 O   0  0  0  0  0  0  0  0  0  0  0  0
  146.5860  207.2490  239.8750 C   0  0  2  0  0  0  0  0  0  0  0  0
  147.0370  208.1400  240.9000 O   0  0  0  0  0  0  0  0  0  0  0  0
  145.7980  206.1150  240.5110 C   0  0  0  0  0  0  0  0  0  0  0  0
  136.6080  214.3330  253.4710 N   0  0  0  0  0  0  0  0  0  0  0  0
  136.4730  214.5870  252.0400 C   0  0  2  0  0  0  0  0  0  0  0  0
  135.3030  215.5090  251.7060 C   0  0  0  0  0  0  0  0  0  0  0  0
  134.6710  215.3470  250.6570 O   0  0  0  0  0  0  0  0  0  0  0  0
  136.3320  213.2720  251.2770 C   0  0  0  0  0  0  0  0  0  0  0  0
  137.5370  212.3600  251.4250 C   0  0  0  0  0  0  0  0  0  0  0  0
  137.4540  211.1740  250.4920 C   0  0  0  0  0  0  0  0  0  0  0  0
  138.6110  210.2970  250.6170 N   0  0  0  0  0  0  0  0  0  0  0  0
  139.7140  210.3940  249.8860 C   0  0  0  0  0  0  0  0  0  0  0  0
  139.8450  211.3170  248.9470 N   0  0  0  0  0  0  0  0  0  0  0  0
  140.7110  209.5420  250.1000 N   0  0  0  0  0  0  0  0  0  0  0  0
  141.8890  229.1170  246.5970 N   0  0  0  0  0  0  0  0  0  0  0  0
  141.9490  228.1330  245.5090 C   0  0  2  0  0  0  0  0  0  0  0  0
  143.2270  227.2950  245.6610 C   0  0  0  0  0  0  0  0  0  0  0  0
  143.1780  226.0960  245.4550 O   0  0  0  0  0  0  0  0  0  0  0  0
  142.0370  228.9950  244.2410 C   0  0  0  0  0  0  0  0  0  0  0  0
  141.4570  230.3300  244.6540 C   0  0  0  0  0  0  0  0  0  0  0  0
  141.8610  230.4950  246.1040 C   0  0  0  0  0  0  0  0  0  0  0  0
  144.3280  227.9620  246.0180 N   0  0  0  0  0  0  0  0  0  0  0  0
  145.6200  227.3300  246.2410 C   0  0  2  0  0  0  0  0  0  0  0  0
  145.5920  226.4850  247.5040 C   0  0  0  0  0  0  0  0  0  0  0  0
  146.1840  225.4000  247.5410 O   0  0  0  0  0  0  0  0  0  0  0  0
  146.7170  228.3910  246.3290 C   0  0  0  0  0  0  0  0  0  0  0  0
  143.8980  223.3250  246.5520 N   0  0  0  0  0  0  0  0  0  0  0  0
  144.7370  222.4450  245.7430 C   0  0  2  0  0  0  0  0  0  0  0  0
  145.7990  221.7600  246.5970 C   0  0  0  0  0  0  0  0  0  0  0  0
  146.0560  220.5590  246.4350 O   0  0  0  0  0  0  0  0  0  0  0  0
  145.3880  223.2360  244.6120 C   0  0  0  0  0  0  0  0  0  0  0  0
  146.4080  224.0820  245.1090 O   0  0  0  0  0  0  0  0  0  0  0  0
  144.1450  218.9730  248.4750 N   0  0  0  0  0  0  0  0  0  0  0  0
  143.8020  217.8180  247.6570 C   0  0  2  0  0  0  0  0  0  0  0  0
  145.0280  217.0500  247.1840 C   0  0  0  0  0  0  0  0  0  0  0  0
  144.9120  215.8620  246.8760 O   0  0  0  0  0  0  0  0  0  0  0  0
  142.9770  218.2590  246.4480 C   0  0  0  0  0  0  0  0  0  0  0  0
  141.7790  218.8970  246.8540 O   0  0  0  0  0  0  0  0  0  0  0  0
  146.1940  217.6910  247.1120 N   0  0  0  0  0  0  0  0  0  0  0  0
  147.3710  217.0190  246.5770 C   0  0  2  0  0  0  0  0  0  0  0  0
  148.1440  216.2280  247.6240 C   0  0  0  0  0  0  0  0  0  0  0  0
  148.7540  215.2070  247.2910 O   0  0  0  0  0  0  0  0  0  0  0  0
  148.3150  218.0420  245.9420 C   0  0  2  0  0  0  0  0  0  0  0  0
  148.4590  219.1670  246.8150 O   0  0  0  0  0  0  0  0  0  0  0  0
  147.7700  218.5210  244.6140 C   0  0  0  0  0  0  0  0  0  0  0  0
  146.7380  214.6400  250.1190 N   0  0  0  0  0  0  0  0  0  0  0  0
  145.8210  213.7140  250.7760 C   0  0  2  0  0  0  0  0  0  0  0  0
  146.0530  212.2810  250.2920 C   0  0  0  0  0  0  0  0  0  0  0  0
  146.2410  212.0560  249.0940 O   0  0  0  0  0  0  0  0  0  0  0  0
  144.3770  214.1260  250.5040 C   0  0  0  0  0  0  0  0  0  0  0  0
  143.3250  213.1360  250.9790 C   0  0  0  0  0  0  0  0  0  0  0  0
  141.9260  213.7240  250.9570 C   0  0  0  0  0  0  0  0  0  0  0  0
  141.4770  214.2460  249.9390 O   0  0  0  0  0  0  0  0  0  0  0  0
  141.2290  213.6360  252.0800 N   0  0  0  0  0  0  0  0  0  0  0  0
  145.4710  208.5900  248.8900 N   0  0  0  0  0  0  0  0  0  0  0  0
  144.6020  208.2610  247.7700 C   0  0  2  0  0  0  0  0  0  0  0  0
  143.7520  207.0140  247.9870 C   0  0  0  0  0  0  0  0  0  0  0  0
  143.0660  206.5920  247.0520 O   0  0  0  0  0  0  0  0  0  0  0  0
  145.4380  208.0850  246.5030 C   0  0  0  0  0  0  0  0  0  0  0  0
  146.3230  206.9890  246.6320 O   0  0  0  0  0  0  0  0  0  0  0  0
  2  1  1  0
  3  2  1  0
  4  3  2  0
  5  3  1  0
  6  5  1  0
  7  6  1  0
  8  7  2  0
  6  9  1  1
 10  9  1  0
 11 10  1  0
 12 11  1  0
 13 12  1  0
 14 13  1  0
 15 13  2  0
 16  7  1  0
 17 16  1  0
 18 17  1  0
 19 18  2  0
 17 20  1  1
 21 20  1  0
 22 18  1  0
 23 22  1  0
 24 23  1  0
 25 24  2  0
 23 26  1  6
 27 26  1  0
 28 27  1  0
 29 28  2  0
 30 28  1  0
 31 24  1  0
 32 31  1  0
 33 32  1  0
 34 33  2  0
 32 35  1  1
 36 35  1  0
 37 36  1  0
 38 37  1  0
 40 39  1  1
 41 40  1  0
 42 41  2  0
 43 40  1  0
 44 43  1  0
 43 45  1  6
 47 46  1  6
 48 47  1  0
 49 48  2  0
 50 47  1  0
 51 50  1  0
 50 52  1  1
 54 53  1  1
 55 54  1  0
 56 55  2  0
 57 54  1  0
 58 57  1  0
 59 58  1  0
 60 59  1  0
 61 60  1  0
 62 61  1  0
 63 61  2  0
 65 64  1  0
 65 66  1  1
 67 66  2  0
 68 65  1  0
 69 68  1  0
 70 69  1  0
 70 64  1  0
 71 66  1  0
 72 71  1  0
 73 72  1  0
 74 73  2  0
 72 75  1  1
 77 76  1  1
 78 77  1  0
 79 78  2  0
 80 77  1  0
 81 80  1  0
 83 82  1  6
 84 83  1  0
 85 84  2  0
 86 83  1  0
 87 86  1  0
 88 84  1  0
 89 88  1  1
 90 89  1  0
 91 90  2  0
 92 89  1  0
 93 92  1  0
 92 94  1  6
 96 95  1  6
 97 96  1  0
 98 97  2  0
 99 96  1  0
100 99  1  0
101100  1  0
102101  2  0
103101  1  0
105104  1  1
106105  1  0
107106  2  0
108105  1  0
109108  1  0
M  END
$$$$
