
     RDKit          3D

 82 78  0  0  0  0  0  0  0  0999 V2000
  117.4050  155.7340  137.2020 N   0  0  0  0  0  0  0  0  0  0  0  0
  116.0570  155.1700  137.1640 C   0  0  2  0  0  0  0  0  0  0  0  0
  115.2670  155.8550  138.2710 C   0  0  0  0  0  0  0  0  0  0  0  0
  115.6490  155.7900  139.4430 O   0  0  0  0  0  0  0  0  0  0  0  0
  116.0770  153.6530  137.3190 C   0  0  0  0  0  0  0  0  0  0  0  0
  116.7090  152.9880  136.1320 C   0  0  0  0  0  0  0  0  0  0  0  0
  117.9340  152.8920  136.0500 O   0  0  0  0  0  0  0  0  0  0  0  0
  115.8900  152.5460  135.1870 N   0  0  0  0  0  0  0  0  0  0  0  0
  112.2010  155.1860  139.2230 N   0  0  0  0  0  0  0  0  0  0  0  0
  111.5460  154.1750  140.0410 C   0  0  2  0  0  0  0  0  0  0  0  0
  112.5090  153.4980  141.0100 C   0  0  0  0  0  0  0  0  0  0  0  0
  112.0620  152.9380  142.0160 O   0  0  0  0  0  0  0  0  0  0  0  0
  110.8820  153.1390  139.1400 C   0  0  2  0  0  0  0  0  0  0  0  0
  111.8930  152.3960  138.4530 O   0  0  0  0  0  0  0  0  0  0  0  0
  109.9940  153.8220  138.1190 C   0  0  0  0  0  0  0  0  0  0  0  0
  113.8080  153.5340  140.7320 N   0  0  0  0  0  0  0  0  0  0  0  0
  114.8240  153.1170  141.6860 C   0  0  2  0  0  0  0  0  0  0  0  0
  115.0090  154.2080  142.7310 C   0  0  0  0  0  0  0  0  0  0  0  0
  114.9200  155.3990  142.4220 O   0  0  0  0  0  0  0  0  0  0  0  0
  116.1470  152.8440  140.9690 C   0  0  0  0  0  0  0  0  0  0  0  0
  117.0090  151.8310  141.6850 C   0  0  0  0  0  0  0  0  0  0  0  0
  116.8510  151.6580  142.9070 O   0  0  0  0  0  0  0  0  0  0  0  0
  117.8580  151.2070  141.0180 O   0  0  0  0  0  0  0  0  0  0  0  0
  115.2630  153.7980  143.9720 N   0  0  0  0  0  0  0  0  0  0  0  0
  115.4940  154.7480  145.0510 C   0  0  2  0  0  0  0  0  0  0  0  0
  116.9540  154.8390  145.4620 C   0  0  0  0  0  0  0  0  0  0  0  0
  117.3370  155.8250  146.0990 O   0  0  0  0  0  0  0  0  0  0  0  0
  114.6460  154.3940  146.2770 C   0  0  0  0  0  0  0  0  0  0  0  0
  114.7100  152.9340  146.6240 C   0  0  0  0  0  0  0  0  0  0  0  0
  115.6090  152.4910  147.3310 O   0  0  0  0  0  0  0  0  0  0  0  0
  113.7510  152.1710  146.1290 N   0  0  0  0  0  0  0  0  0  0  0  0
  102.5480  161.9450  140.4320 N   0  0  0  0  0  0  0  0  0  0  0  0
  102.0210  162.0120  141.7900 C   0  0  2  0  0  0  0  0  0  0  0  0
  101.9290  163.4800  142.1660 C   0  0  0  0  0  0  0  0  0  0  0  0
  102.9480  164.1750  142.1950 O   0  0  0  0  0  0  0  0  0  0  0  0
  102.9070  161.2460  142.7750 C   0  0  0  0  0  0  0  0  0  0  0  0
  102.3910  159.8560  143.0910 C   0  0  0  0  0  0  0  0  0  0  0  0
  103.4540  158.9940  143.7300 C   0  0  0  0  0  0  0  0  0  0  0  0
  103.2800  157.5850  143.3910 N   0  0  0  0  0  0  0  0  0  0  0  0
  103.8660  156.5850  144.0390 C   0  0  0  0  0  0  0  0  0  0  0  0
  104.6640  156.8340  145.0680 N   0  0  0  0  0  0  0  0  0  0  0  0
  103.6510  155.3320  143.6610 N   0  0  0  0  0  0  0  0  0  0  0  0
  114.8630  159.5030  146.8490 N   0  0  0  0  0  0  0  0  0  0  0  0
  113.5210  159.0860  147.2330 C   0  0  2  0  0  0  0  0  0  0  0  0
  113.5440  158.2930  148.5310 C   0  0  0  0  0  0  0  0  0  0  0  0
  114.5310  157.6350  148.8690 O   0  0  0  0  0  0  0  0  0  0  0  0
  112.8960  158.2270  146.1430 C   0  0  0  0  0  0  0  0  0  0  0  0
  112.0370  158.9700  145.1660 C   0  0  0  0  0  0  0  0  0  0  0  0
  111.6380  158.0550  144.0340 C   0  0  0  0  0  0  0  0  0  0  0  0
  110.7180  157.0090  144.4580 N   0  0  0  0  0  0  0  0  0  0  0  0
  110.9980  155.7130  144.4130 C   0  0  0  0  0  0  0  0  0  0  0  0
  112.1760  155.3100  143.9670 N   0  0  0  0  0  0  0  0  0  0  0  0
  110.1060  154.8210  144.8170 N   0  0  0  0  0  0  0  0  0  0  0  0
  112.4360  158.3640  149.2660 N   0  0  0  0  0  0  0  0  0  0  0  0
  112.3430  157.6110  150.5080 C   0  0  2  0  0  0  0  0  0  0  0  0
  112.0640  156.1390  150.2360 C   0  0  0  0  0  0  0  0  0  0  0  0
  112.6040  155.2630  150.9190 O   0  0  0  0  0  0  0  0  0  0  0  0
  111.2660  158.2160  151.4020 C   0  0  0  0  0  0  0  0  0  0  0  0
  111.7170  158.3640  152.8360 C   0  0  0  0  0  0  0  0  0  0  0  0
  112.9130  158.1400  153.1100 O   0  0  0  0  0  0  0  0  0  0  0  0
  110.8780  158.7120  153.6900 O   0  0  0  0  0  0  0  0  0  0  0  0
  111.2320  155.8470  149.2420 N   0  0  0  0  0  0  0  0  0  0  0  0
  111.0040  154.4740  148.8410 C   0  0  0  0  0  0  0  0  0  0  0  0
  109.9550  153.7580  149.6640 C   0  0  0  0  0  0  0  0  0  0  0  0
  109.8780  153.9410  150.8810 O   0  0  0  0  0  0  0  0  0  0  0  0
  109.1430  152.9350  149.0090 N   0  0  0  0  0  0  0  0  0  0  0  0
  108.0900  152.2160  149.6940 C   0  0  0  0  0  0  0  0  0  0  0  0
  106.7710  152.9550  149.6520 C   0  0  0  0  0  0  0  0  0  0  0  0
  106.6470  154.0480  150.2090 O   0  0  0  0  0  0  0  0  0  0  0  0
  105.7770  152.3700  148.9910 N   0  0  0  0  0  0  0  0  0  0  0  0
  104.4740  153.0010  148.8570 C   0  0  2  0  0  0  0  0  0  0  0  0
  103.4060  151.9230  148.7590 C   0  0  0  0  0  0  0  0  0  0  0  0
  103.6450  150.8380  148.2240 O   0  0  0  0  0  0  0  0  0  0  0  0
  104.4200  153.9220  147.6340 C   0  0  0  0  0  0  0  0  0  0  0  0
  102.2220  152.2370  149.2760 N   0  0  0  0  0  0  0  0  0  0  0  0
  101.0980  151.3110  149.2670 C   0  0  2  0  0  0  0  0  0  0  0  0
  100.2470  151.4210  148.0080 C   0  0  0  0  0  0  0  0  0  0  0  0
   99.1670  150.8200  147.9620 O   0  0  0  0  0  0  0  0  0  0  0  0
  100.2200  151.5400  150.5010 C   0  0  0  0  0  0  0  0  0  0  0  0
   99.6080  152.9260  150.5310 C   0  0  0  0  0  0  0  0  0  0  0  0
   98.4140  153.0440  150.8770 O   0  0  0  0  0  0  0  0  0  0  0  0
  100.3230  153.8980  150.2080 O   0  0  0  0  0  0  0  0  0  0  0  0
  2  1  1  1
  3  2  1  0
  4  3  2  0
  5  2  1  0
  6  5  1  0
  7  6  2  0
  8  6  1  0
 10  9  1  6
 11 10  1  0
 12 11  2  0
 13 10  1  0
 14 13  1  0
 13 15  1  6
 16 11  1  0
 17 16  1  0
 18 17  1  0
 19 18  2  0
 17 20  1  6
 21 20  1  0
 22 21  2  0
 23 21  1  0
 24 18  1  0
 25 24  1  0
 26 25  1  0
 27 26  2  0
 25 28  1  1
 29 28  1  0
 30 29  2  0
 31 29  1  0
 33 32  1  6
 34 33  1  0
 35 34  2  0
 36 33  1  0
 37 36  1  0
 38 37  1  0
 39 38  1  0
 40 39  1  0
 41 40  1  0
 42 40  2  0
 44 43  1  6
 45 44  1  0
 46 45  2  0
 47 44  1  0
 48 47  1  0
 49 48  1  0
 50 49  1  0
 51 50  1  0
 52 51  1  0
 53 51  2  0
 54 45  1  0
 55 54  1  0
 56 55  1  0
 57 56  2  0
 55 58  1  1
 59 58  1  0
 60 59  2  0
 61 59  1  0
 62 56  1  0
 63 62  1  0
 64 63  1  0
 65 64  2  0
 66 64  1  0
 67 66  1  0
 68 67  1  0
 69 68  2  0
 70 68  1  0
 71 70  1  0
 72 71  1  0
 73 72  2  0
 71 74  1  6
 75 72  1  0
 76 75  1  0
 77 76  1  0
 78 77  2  0
 76 79  1  1
 80 79  1  0
 81 80  2  0
 82 80  1  0
M  END
$$$$
