
     RDKit          3D

129124  0  0  0  0  0  0  0  0999 V2000
  137.0170  160.6280  139.4020 N   0  0  0  0  0  0  0  0  0  0  0  0
  136.9890  160.2200  140.8030 C   0  0  2  0  0  0  0  0  0  0  0  0
  138.2910  159.5380  141.2060 C   0  0  0  0  0  0  0  0  0  0  0  0
  138.8930  159.8820  142.2320 O   0  0  0  0  0  0  0  0  0  0  0  0
  135.7920  159.3010  141.0390 C   0  0  0  0  0  0  0  0  0  0  0  0
  135.6950  158.7770  142.4350 C   0  0  0  0  0  0  0  0  0  0  0  0
  135.7690  157.4330  142.7300 N   0  0  0  0  0  0  0  0  0  0  0  0
  135.5260  159.4130  143.6170 C   0  0  0  0  0  0  0  0  0  0  0  0
  135.6520  157.2650  144.0340 C   0  0  0  0  0  0  0  0  0  0  0  0
  135.5030  158.4510  144.5960 N   0  0  0  0  0  0  0  0  0  0  0  0
  117.7940  161.5750  156.7890 N   0  0  0  0  0  0  0  0  0  0  0  0
  117.3580  160.6910  157.8680 C   0  0  2  0  0  0  0  0  0  0  0  0
  118.5030  160.3420  158.8100 C   0  0  0  0  0  0  0  0  0  0  0  0
  118.3720  160.4570  160.0340 O   0  0  0  0  0  0  0  0  0  0  0  0
  116.7380  159.4230  157.2830 C   0  0  0  0  0  0  0  0  0  0  0  0
  115.3700  159.6160  156.9790 O   0  0  0  0  0  0  0  0  0  0  0  0
  119.6330  159.9110  158.2630 N   0  0  0  0  0  0  0  0  0  0  0  0
  120.7310  159.5040  159.1130 C   0  0  0  0  0  0  0  0  0  0  0  0
  122.0830  159.5340  158.4410 C   0  0  0  0  0  0  0  0  0  0  0  0
  122.2160  159.9960  157.3060 O   0  0  0  0  0  0  0  0  0  0  0  0
  123.0900  159.0330  159.1390 N   0  0  0  0  0  0  0  0  0  0  0  0
  124.4550  159.0350  158.6590 C   0  0  0  0  0  0  0  0  0  0  0  0
  125.3880  159.7620  159.6080 C   0  0  0  0  0  0  0  0  0  0  0  0
  124.9870  160.3080  160.6340 O   0  0  0  0  0  0  0  0  0  0  0  0
  126.6630  159.7460  159.2350 N   0  0  0  0  0  0  0  0  0  0  0  0
  127.6570  160.5310  159.9380 C   0  0  2  0  0  0  0  0  0  0  0  0
  127.4560  162.0080  159.5970 C   0  0  0  0  0  0  0  0  0  0  0  0
  126.8470  162.3300  158.5740 O   0  0  0  0  0  0  0  0  0  0  0  0
  129.0630  160.0480  159.5650 C   0  0  0  0  0  0  0  0  0  0  0  0
  129.3190  160.0490  158.0690 C   0  0  0  0  0  0  0  0  0  0  0  0
  128.3600  160.1410  157.2750 O   0  0  0  0  0  0  0  0  0  0  0  0
  130.5010  159.9430  157.6830 O   0  0  0  0  0  0  0  0  0  0  0  0
  128.5600  164.2510  157.7390 N   0  0  0  0  0  0  0  0  0  0  0  0
  128.9940  164.7650  156.4430 C   0  0  2  0  0  0  0  0  0  0  0  0
  127.9600  164.5250  155.3610 C   0  0  0  0  0  0  0  0  0  0  0  0
  128.0340  165.1630  154.3080 O   0  0  0  0  0  0  0  0  0  0  0  0
  130.3120  164.1120  156.0000 C   0  0  0  0  0  0  0  0  0  0  0  0
  131.5280  164.4330  156.8480 C   0  0  0  0  0  0  0  0  0  0  0  0
  132.3330  163.2030  157.1980 C   0  0  0  0  0  0  0  0  0  0  0  0
  132.1130  162.1520  156.5600 O   0  0  0  0  0  0  0  0  0  0  0  0
  133.1810  163.2870  158.1110 O   0  0  0  0  0  0  0  0  0  0  0  0
  127.0040  163.6290  155.5850 N   0  0  0  0  0  0  0  0  0  0  0  0
  125.9740  163.2890  154.6180 C   0  0  2  0  0  0  0  0  0  0  0  0
  124.6360  163.9140  154.9880 C   0  0  0  0  0  0  0  0  0  0  0  0
  123.9220  164.4240  154.1250 O   0  0  0  0  0  0  0  0  0  0  0  0
  125.8930  161.7480  154.4950 C   0  0  2  0  0  0  0  0  0  0  0  0
  127.1600  161.2410  153.7990 C   0  0  0  0  0  0  0  0  0  0  0  0
  124.6090  161.2580  153.8120 C   0  0  0  0  0  0  0  0  0  0  0  0
  127.1330  159.7930  153.3930 C   0  0  0  0  0  0  0  0  0  0  0  0
  135.9280  161.8190  151.7810 N   0  0  0  0  0  0  0  0  0  0  0  0
  135.3510  160.7310  150.9790 C   0  0  2  0  0  0  0  0  0  0  0  0
  134.7850  159.6120  151.8520 C   0  0  0  0  0  0  0  0  0  0  0  0
  134.9840  158.4240  151.5820 O   0  0  0  0  0  0  0  0  0  0  0  0
  136.3480  160.2020  149.9410 C   0  0  0  0  0  0  0  0  0  0  0  0
  136.3700  161.0940  148.7480 C   0  0  0  0  0  0  0  0  0  0  0  0
  135.4800  161.1020  147.7170 C   0  0  0  0  0  0  0  0  0  0  0  0
  137.2960  162.1510  148.4850 C   0  0  0  0  0  0  0  0  0  0  0  0
  135.8090  162.0820  146.8150 N   0  0  0  0  0  0  0  0  0  0  0  0
  136.9180  162.7440  147.2670 C   0  0  0  0  0  0  0  0  0  0  0  0
  138.4210  162.6390  149.1500 C   0  0  0  0  0  0  0  0  0  0  0  0
  137.6170  163.8040  146.7060 C   0  0  0  0  0  0  0  0  0  0  0  0
  139.1070  163.6980  148.5980 C   0  0  0  0  0  0  0  0  0  0  0  0
  138.7090  164.2650  147.3850 C   0  0  0  0  0  0  0  0  0  0  0  0
  134.0810  160.0360  152.9120 N   0  0  0  0  0  0  0  0  0  0  0  0
  133.2300  159.2140  153.7820 C   0  0  2  0  0  0  0  0  0  0  0  0
  134.0120  158.0960  154.4790 C   0  0  0  0  0  0  0  0  0  0  0  0
  133.7980  156.9060  154.2460 O   0  0  0  0  0  0  0  0  0  0  0  0
  132.0320  158.6610  153.0020 C   0  0  0  0  0  0  0  0  0  0  0  0
  130.9870  159.7090  152.6510 C   0  0  0  0  0  0  0  0  0  0  0  0
  131.1380  160.2330  151.2380 C   0  0  0  0  0  0  0  0  0  0  0  0
  131.8780  159.6720  150.4310 O   0  0  0  0  0  0  0  0  0  0  0  0
  130.4320  161.3140  150.9290 N   0  0  0  0  0  0  0  0  0  0  0  0
  134.9480  158.5060  155.3290 N   0  0  0  0  0  0  0  0  0  0  0  0
  135.6900  157.5600  156.1390 C   0  0  0  0  0  0  0  0  0  0  0  0
  136.9320  157.0010  155.4780 C   0  0  0  0  0  0  0  0  0  0  0  0
  138.0310  157.1090  156.0300 O   0  0  0  0  0  0  0  0  0  0  0  0
  136.7720  156.3910  154.3020 N   0  0  0  0  0  0  0  0  0  0  0  0
  137.9010  155.7720  153.6190 C   0  0  2  0  0  0  0  0  0  0  0  0
  138.7480  156.8420  152.9460 C   0  0  0  0  0  0  0  0  0  0  0  0
  138.2310  157.8330  152.4130 O   0  0  0  0  0  0  0  0  0  0  0  0
  137.4090  154.7250  152.6040 C   0  0  0  0  0  0  0  0  0  0  0  0
  137.1220  153.4080  153.3050 C   0  0  0  0  0  0  0  0  0  0  0  0
  136.1670  155.2230  151.8770 C   0  0  0  0  0  0  0  0  0  0  0  0
  117.0500  162.1660  146.9820 N   0  0  0  0  0  0  0  0  0  0  0  0
  116.9610  160.7120  147.0900 C   0  0  2  0  0  0  0  0  0  0  0  0
  115.5550  160.3890  147.5660 C   0  0  0  0  0  0  0  0  0  0  0  0
  115.0940  160.9780  148.5490 O   0  0  0  0  0  0  0  0  0  0  0  0
  118.0240  160.1650  148.0590 C   0  0  2  0  0  0  0  0  0  0  0  0
  119.3050  160.2010  147.4240 O   0  0  0  0  0  0  0  0  0  0  0  0
  117.7300  158.7380  148.4880 C   0  0  0  0  0  0  0  0  0  0  0  0
  112.4360  158.3640  149.2660 N   0  0  0  0  0  0  0  0  0  0  0  0
  112.3430  157.6110  150.5080 C   0  0  2  0  0  0  0  0  0  0  0  0
  112.0640  156.1390  150.2360 C   0  0  0  0  0  0  0  0  0  0  0  0
  112.6040  155.2630  150.9190 O   0  0  0  0  0  0  0  0  0  0  0  0
  111.2660  158.2160  151.4020 C   0  0  0  0  0  0  0  0  0  0  0  0
  111.7170  158.3640  152.8360 C   0  0  0  0  0  0  0  0  0  0  0  0
  112.9130  158.1400  153.1100 O   0  0  0  0  0  0  0  0  0  0  0  0
  110.8780  158.7120  153.6900 O   0  0  0  0  0  0  0  0  0  0  0  0
  114.2860  163.0470  150.2300 N   0  0  0  0  0  0  0  0  0  0  0  0
  115.2580  163.4510  151.2290 C   0  0  2  0  0  0  0  0  0  0  0  0
  116.6110  163.6710  150.5760 C   0  0  0  0  0  0  0  0  0  0  0  0
  117.0300  162.8700  149.7420 O   0  0  0  0  0  0  0  0  0  0  0  0
  115.3730  162.3870  152.3150 C   0  0  0  0  0  0  0  0  0  0  0  0
  114.1350  162.3140  153.1630 C   0  0  0  0  0  0  0  0  0  0  0  0
  114.1330  161.1050  154.0610 C   0  0  0  0  0  0  0  0  0  0  0  0
  113.8660  161.4630  155.4490 N   0  0  0  0  0  0  0  0  0  0  0  0
  112.6550  161.6300  155.9650 C   0  0  0  0  0  0  0  0  0  0  0  0
  111.5760  161.4750  155.2120 N   0  0  0  0  0  0  0  0  0  0  0  0
  112.5210  161.9540  157.2420 N   0  0  0  0  0  0  0  0  0  0  0  0
  120.7500  164.5330  149.6210 N   0  0  0  0  0  0  0  0  0  0  0  0
  122.1270  164.1890  149.9400 C   0  0  0  0  0  0  0  0  0  0  0  0
  122.4120  162.7140  150.0890 C   0  0  0  0  0  0  0  0  0  0  0  0
  123.2130  162.3260  150.9480 O   0  0  0  0  0  0  0  0  0  0  0  0
  121.7920  161.8810  149.2680 N   0  0  0  0  0  0  0  0  0  0  0  0
  121.9920  160.4550  149.3870 C   0  0  0  0  0  0  0  0  0  0  0  0
  123.0740  159.8750  148.5060 C   0  0  0  0  0  0  0  0  0  0  0  0
  123.0570  158.6680  148.2450 O   0  0  0  0  0  0  0  0  0  0  0  0
  124.0220  160.6850  148.0470 N   0  0  0  0  0  0  0  0  0  0  0  0
  125.0240  160.1900  147.1270 C   0  0  0  0  0  0  0  0  0  0  0  0
  126.4590  160.3380  147.5800 C   0  0  0  0  0  0  0  0  0  0  0  0
  126.7480  160.9910  148.5880 O   0  0  0  0  0  0  0  0  0  0  0  0
  127.3670  159.7270  146.8260 N   0  0  0  0  0  0  0  0  0  0  0  0
  128.7960  159.8740  147.0510 C   0  0  2  0  0  0  0  0  0  0  0  0
  129.2950  161.0940  146.2830 C   0  0  0  0  0  0  0  0  0  0  0  0
  128.5160  161.9160  145.7960 O   0  0  0  0  0  0  0  0  0  0  0  0
  129.5290  158.6000  146.6460 C   0  0  0  0  0  0  0  0  0  0  0  0
  129.2860  158.2240  145.2020 C   0  0  0  0  0  0  0  0  0  0  0  0
  128.2450  158.5470  144.6320 O   0  0  0  0  0  0  0  0  0  0  0  0
  130.2450  157.5320  144.6020 N   0  0  0  0  0  0  0  0  0  0  0  0
  2  1  1  6
  3  2  1  0
  4  3  2  0
  5  2  1  0
  6  5  1  0
  7  6  1  0
  8  6  2  0
  9  7  2  0
 10  9  1  0
 10  8  1  0
 12 11  1  6
 13 12  1  0
 14 13  2  0
 15 12  1  0
 16 15  1  0
 17 13  1  0
 18 17  1  0
 19 18  1  0
 20 19  2  0
 21 19  1  0
 22 21  1  0
 23 22  1  0
 24 23  2  0
 25 23  1  0
 26 25  1  0
 27 26  1  0
 28 27  2  0
 26 29  1  6
 30 29  1  0
 31 30  2  0
 32 30  1  0
 34 33  1  1
 35 34  1  0
 36 35  2  0
 37 34  1  0
 38 37  1  0
 39 38  1  0
 40 39  2  0
 41 39  1  0
 42 35  1  0
 43 42  1  1
 44 43  1  0
 45 44  2  0
 46 43  1  0
 47 46  1  0
 46 48  1  6
 49 47  1  0
 51 50  1  1
 52 51  1  0
 53 52  2  0
 54 51  1  0
 55 54  1  0
 56 55  2  0
 57 55  1  0
 58 56  1  0
 59 58  1  0
 59 57  2  0
 60 57  1  0
 61 59  1  0
 62 60  2  0
 63 61  2  0
 63 62  1  0
 64 52  1  0
 65 64  1  0
 66 65  1  0
 67 66  2  0
 65 68  1  6
 69 68  1  0
 70 69  1  0
 71 70  2  0
 72 70  1  0
 73 66  1  0
 74 73  1  0
 75 74  1  0
 76 75  2  0
 77 75  1  0
 78 77  1  6
 79 78  1  0
 80 79  2  0
 81 78  1  0
 82 81  1  0
 83 81  1  0
 85 84  1  1
 86 85  1  0
 87 86  2  0
 88 85  1  0
 89 88  1  0
 88 90  1  6
 92 91  1  6
 93 92  1  0
 94 93  2  0
 95 92  1  0
 96 95  1  0
 97 96  2  0
 98 96  1  0
100 99  1  6
101100  1  0
102101  2  0
103100  1  0
104103  1  0
105104  1  0
106105  1  0
107106  1  0
108107  1  0
109107  2  0
111110  1  0
112111  1  0
113112  2  0
114112  1  0
115114  1  0
116115  1  0
117116  2  0
118116  1  0
119118  1  0
120119  1  0
121120  2  0
122120  1  0
123122  1  0
124123  1  0
125124  2  0
123126  1  6
127126  1  0
128127  2  0
129127  1  0
M  END
$$$$
