
     RDKit          3D

 96 92  0  0  0  0  0  0  0  0999 V2000
  124.5880  128.4230  138.2340 N   0  0  0  0  0  0  0  0  0  0  0  0
  124.1320  127.4090  137.2880 C   0  0  2  0  0  0  0  0  0  0  0  0
  122.8440  126.7390  137.7510 C   0  0  0  0  0  0  0  0  0  0  0  0
  121.9680  126.4310  136.9310 O   0  0  0  0  0  0  0  0  0  0  0  0
  125.2280  126.3690  137.0730 C   0  0  0  0  0  0  0  0  0  0  0  0
  126.3220  126.9280  136.3690 O   0  0  0  0  0  0  0  0  0  0  0  0
  119.3240  126.1430  135.6540 N   0  0  0  0  0  0  0  0  0  0  0  0
  118.6370  124.8680  135.4800 C   0  0  2  0  0  0  0  0  0  0  0  0
  117.2200  124.9160  136.0420 C   0  0  0  0  0  0  0  0  0  0  0  0
  116.2860  124.3810  135.4360 O   0  0  0  0  0  0  0  0  0  0  0  0
  119.4420  123.7480  136.1340 C   0  0  0  0  0  0  0  0  0  0  0  0
  120.8230  123.5930  135.5800 C   0  0  0  0  0  0  0  0  0  0  0  0
  121.0700  123.4040  134.2380 N   0  0  0  0  0  0  0  0  0  0  0  0
  122.0310  123.5770  136.1890 C   0  0  0  0  0  0  0  0  0  0  0  0
  122.3710  123.2900  134.0440 C   0  0  0  0  0  0  0  0  0  0  0  0
  122.9770  123.3920  135.2120 N   0  0  0  0  0  0  0  0  0  0  0  0
  130.5990  112.9740  135.2740 N   0  0  0  0  0  0  0  0  0  0  0  0
  129.8700  112.8070  136.5210 C   0  0  2  0  0  0  0  0  0  0  0  0
  128.3910  112.5880  136.2400 C   0  0  0  0  0  0  0  0  0  0  0  0
  127.8330  113.1790  135.3110 O   0  0  0  0  0  0  0  0  0  0  0  0
  130.0500  114.0310  137.4220 C   0  0  2  0  0  0  0  0  0  0  0  0
  131.4440  114.2600  137.6330 O   0  0  0  0  0  0  0  0  0  0  0  0
  129.3920  113.8170  138.7710 C   0  0  0  0  0  0  0  0  0  0  0  0
  127.7640  111.7320  137.0400 N   0  0  0  0  0  0  0  0  0  0  0  0
  126.3030  111.6170  137.0050 C   0  0  2  0  0  0  0  0  0  0  0  0
  125.6980  112.9450  137.4410 C   0  0  0  0  0  0  0  0  0  0  0  0
  126.0610  113.4690  138.5120 O   0  0  0  0  0  0  0  0  0  0  0  0
  125.8320  110.4730  137.9170 C   0  0  0  0  0  0  0  0  0  0  0  0
  124.3430  110.2600  137.7800 C   0  0  0  0  0  0  0  0  0  0  0  0
  126.5760  109.2040  137.5870 C   0  0  0  0  0  0  0  0  0  0  0  0
  124.7900  113.5360  136.6690 N   0  0  0  0  0  0  0  0  0  0  0  0
  124.3260  114.8890  136.9860 C   0  0  2  0  0  0  0  0  0  0  0  0
  123.4910  114.9320  138.2540 C   0  0  0  0  0  0  0  0  0  0  0  0
  122.8650  113.9480  138.6530 O   0  0  0  0  0  0  0  0  0  0  0  0
  123.4860  115.2730  135.7630 C   0  0  0  0  0  0  0  0  0  0  0  0
  123.8170  114.2650  134.7200 C   0  0  0  0  0  0  0  0  0  0  0  0
  124.1670  113.0210  135.4430 C   0  0  0  0  0  0  0  0  0  0  0  0
  123.4890  116.1020  138.8860 N   0  0  0  0  0  0  0  0  0  0  0  0
  122.6770  116.3490  140.0620 C   0  0  2  0  0  0  0  0  0  0  0  0
  121.2020  116.3430  139.6670 C   0  0  0  0  0  0  0  0  0  0  0  0
  120.8710  116.2780  138.4820 O   0  0  0  0  0  0  0  0  0  0  0  0
  123.0900  117.6750  140.6980 C   0  0  0  0  0  0  0  0  0  0  0  0
  122.8250  118.7590  139.8300 O   0  0  0  0  0  0  0  0  0  0  0  0
  120.4100  119.5420  137.5020 N   0  0  0  0  0  0  0  0  0  0  0  0
  121.0460  119.5200  136.1890 C   0  0  2  0  0  0  0  0  0  0  0  0
  120.3420  118.5400  135.2620 C   0  0  0  0  0  0  0  0  0  0  0  0
  120.0520  118.8620  134.1060 O   0  0  0  0  0  0  0  0  0  0  0  0
  122.5240  119.1620  136.3190 C   0  0  0  0  0  0  0  0  0  0  0  0
  123.3630  120.2210  137.0000 C   0  0  0  0  0  0  0  0  0  0  0  0
  124.8470  119.9760  136.8410 C   0  0  0  0  0  0  0  0  0  0  0  0
  125.2200  119.0190  136.1340 O   0  0  0  0  0  0  0  0  0  0  0  0
  125.6430  120.7420  137.4220 O   0  0  0  0  0  0  0  0  0  0  0  0
  123.8800  115.7170  126.5410 N   0  0  0  0  0  0  0  0  0  0  0  0
  123.9420  116.4250  127.8170 C   0  0  2  0  0  0  0  0  0  0  0  0
  124.9810  117.5350  127.7910 C   0  0  0  0  0  0  0  0  0  0  0  0
  124.7730  118.6020  128.3780 O   0  0  0  0  0  0  0  0  0  0  0  0
  124.2420  115.4480  128.9490 C   0  0  0  0  0  0  0  0  0  0  0  0
  124.2950  116.0920  130.3000 C   0  0  0  0  0  0  0  0  0  0  0  0
  123.2940  116.9450  130.7140 C   0  0  0  0  0  0  0  0  0  0  0  0
  125.3450  115.8410  131.1590 C   0  0  0  0  0  0  0  0  0  0  0  0
  123.3400  117.5350  131.9540 C   0  0  0  0  0  0  0  0  0  0  0  0
  125.3940  116.4300  132.4000 C   0  0  0  0  0  0  0  0  0  0  0  0
  124.3900  117.2770  132.7970 C   0  0  0  0  0  0  0  0  0  0  0  0
  124.7340  121.5070  128.4900 N   0  0  0  0  0  0  0  0  0  0  0  0
  125.5960  122.1650  129.4670 C   0  0  2  0  0  0  0  0  0  0  0  0
  126.2430  123.4110  128.8770 C   0  0  0  0  0  0  0  0  0  0  0  0
  126.2550  124.4750  129.5090 O   0  0  0  0  0  0  0  0  0  0  0  0
  126.6640  121.1940  129.9610 C   0  0  0  0  0  0  0  0  0  0  0  0
  126.3050  120.3640  131.1870 C   0  0  0  0  0  0  0  0  0  0  0  0
  127.5120  119.5840  131.6620 C   0  0  0  0  0  0  0  0  0  0  0  0
  125.7770  121.2570  132.2870 C   0  0  0  0  0  0  0  0  0  0  0  0
  126.7840  123.2990  127.6640 N   0  0  0  0  0  0  0  0  0  0  0  0
  127.3830  124.4620  127.0200 C   0  0  2  0  0  0  0  0  0  0  0  0
  126.3360  125.5110  126.6670 C   0  0  0  0  0  0  0  0  0  0  0  0
  126.6450  126.7070  126.6570 O   0  0  0  0  0  0  0  0  0  0  0  0
  128.1590  124.0300  125.7790 C   0  0  0  0  0  0  0  0  0  0  0  0
  129.2960  123.0650  126.0720 C   0  0  0  0  0  0  0  0  0  0  0  0
  130.4020  123.6880  126.9050 C   0  0  0  0  0  0  0  0  0  0  0  0
  130.2640  123.8660  128.1140 O   0  0  0  0  0  0  0  0  0  0  0  0
  131.5110  124.0190  126.2570 N   0  0  0  0  0  0  0  0  0  0  0  0
  123.7910  126.1200  128.6280 N   0  0  0  0  0  0  0  0  0  0  0  0
  123.6180  126.7680  129.9260 C   0  0  2  0  0  0  0  0  0  0  0  0
  124.7400  127.7630  130.1730 C   0  0  0  0  0  0  0  0  0  0  0  0
  124.5110  128.8680  130.6780 O   0  0  0  0  0  0  0  0  0  0  0  0
  123.5450  125.7120  131.0430 C   0  0  0  0  0  0  0  0  0  0  0  0
  123.8560  126.3350  132.3890 C   0  0  0  0  0  0  0  0  0  0  0  0
  122.1800  125.0810  131.0680 C   0  0  0  0  0  0  0  0  0  0  0  0
  125.9700  127.3860  129.8190 N   0  0  0  0  0  0  0  0  0  0  0  0
  127.1030  128.2850  130.0090 C   0  0  2  0  0  0  0  0  0  0  0  0
  126.8950  129.6140  129.2940 C   0  0  0  0  0  0  0  0  0  0  0  0
  127.3810  130.6500  129.7600 O   0  0  0  0  0  0  0  0  0  0  0  0
  128.3850  127.6140  129.5220 C   0  0  0  0  0  0  0  0  0  0  0  0
  129.6500  128.1550  130.1510 C   0  0  0  0  0  0  0  0  0  0  0  0
  130.8930  127.7080  129.4140 C   0  0  0  0  0  0  0  0  0  0  0  0
  131.6630  128.5290  128.9170 O   0  0  0  0  0  0  0  0  0  0  0  0
  131.0920  126.3980  129.3320 N   0  0  0  0  0  0  0  0  0  0  0  0
  2  1  1  1
  3  2  1  0
  4  3  2  0
  5  2  1  0
  6  5  1  0
  8  7  1  1
  9  8  1  0
 10  9  2  0
 11  8  1  0
 12 11  1  0
 13 12  1  0
 14 12  2  0
 15 13  2  0
 16 15  1  0
 16 14  1  0
 18 17  1  6
 19 18  1  0
 20 19  2  0
 21 18  1  0
 22 21  1  0
 21 23  1  1
 24 19  1  0
 25 24  1  1
 26 25  1  0
 27 26  2  0
 28 25  1  0
 29 28  1  0
 30 28  1  0
 31 26  1  0
 32 31  1  0
 32 33  1  1
 34 33  2  0
 35 32  1  0
 36 35  1  0
 37 36  1  0
 37 31  1  0
 38 33  1  0
 39 38  1  0
 40 39  1  0
 41 40  2  0
 39 42  1  6
 43 42  1  0
 45 44  1  1
 46 45  1  0
 47 46  2  0
 48 45  1  0
 49 48  1  0
 50 49  1  0
 51 50  2  0
 52 50  1  0
 54 53  1  6
 55 54  1  0
 56 55  2  0
 57 54  1  0
 58 57  1  0
 59 58  2  0
 60 58  1  0
 61 59  1  0
 62 60  2  0
 63 61  2  0
 63 62  1  0
 65 64  1  6
 66 65  1  0
 67 66  2  0
 68 65  1  0
 69 68  1  0
 70 69  1  0
 71 69  1  0
 72 66  1  0
 73 72  1  0
 74 73  1  0
 75 74  2  0
 73 76  1  6
 77 76  1  0
 78 77  1  0
 79 78  2  0
 80 78  1  0
 82 81  1  6
 83 82  1  0
 84 83  2  0
 85 82  1  0
 86 85  1  0
 87 85  1  0
 88 83  1  0
 89 88  1  0
 90 89  1  0
 91 90  2  0
 89 92  1  6
 93 92  1  0
 94 93  1  0
 95 94  2  0
 96 94  1  0
M  END
$$$$
