
     RDKit          3D

116110  0  0  0  0  0  0  0  0999 V2000
  124.0240  127.9900  137.4070 N   0  0  0  0  0  0  0  0  0  0  0  0
  123.5400  126.9810  136.4700 C   0  0  2  0  0  0  0  0  0  0  0  0
  122.2450  126.3360  136.9510 C   0  0  0  0  0  0  0  0  0  0  0  0
  121.3300  126.0970  136.1520 O   0  0  0  0  0  0  0  0  0  0  0  0
  124.6160  125.9230  136.2450 C   0  0  0  0  0  0  0  0  0  0  0  0
  125.5790  126.3780  135.3120 O   0  0  0  0  0  0  0  0  0  0  0  0
  118.6470  125.8620  134.9550 N   0  0  0  0  0  0  0  0  0  0  0  0
  117.9160  124.6110  134.7820 C   0  0  2  0  0  0  0  0  0  0  0  0
  116.5100  124.7050  135.3680 C   0  0  0  0  0  0  0  0  0  0  0  0
  115.5510  124.1890  134.7840 O   0  0  0  0  0  0  0  0  0  0  0  0
  118.6930  123.4590  135.4110 C   0  0  0  0  0  0  0  0  0  0  0  0
  120.0290  123.2170  134.7820 C   0  0  0  0  0  0  0  0  0  0  0  0
  120.1750  122.8710  133.4560 N   0  0  0  0  0  0  0  0  0  0  0  0
  121.2780  123.2500  135.3010 C   0  0  0  0  0  0  0  0  0  0  0  0
  121.4580  122.7150  133.1830 C   0  0  0  0  0  0  0  0  0  0  0  0
  122.1480  122.9380  134.2860 N   0  0  0  0  0  0  0  0  0  0  0  0
  129.7000  112.7010  134.7220 N   0  0  0  0  0  0  0  0  0  0  0  0
  128.9470  112.5570  135.9590 C   0  0  2  0  0  0  0  0  0  0  0  0
  127.4760  112.3020  135.6660 C   0  0  0  0  0  0  0  0  0  0  0  0
  126.9090  112.8780  134.7340 O   0  0  0  0  0  0  0  0  0  0  0  0
  129.0810  113.8100  136.8230 C   0  0  2  0  0  0  0  0  0  0  0  0
  130.4610  114.1620  136.9430 O   0  0  0  0  0  0  0  0  0  0  0  0
  128.5120  113.5710  138.2110 C   0  0  0  0  0  0  0  0  0  0  0  0
  126.8660  111.4330  136.4650 N   0  0  0  0  0  0  0  0  0  0  0  0
  125.4060  111.3170  136.4370 C   0  0  2  0  0  0  0  0  0  0  0  0
  124.8030  112.6350  136.9040 C   0  0  0  0  0  0  0  0  0  0  0  0
  125.1640  113.1290  137.9900 O   0  0  0  0  0  0  0  0  0  0  0  0
  124.9400  110.1530  137.3240 C   0  0  0  0  0  0  0  0  0  0  0  0
  123.4470  110.2340  137.5650 C   0  0  0  0  0  0  0  0  0  0  0  0
  125.3050  108.8300  136.6860 C   0  0  0  0  0  0  0  0  0  0  0  0
  123.9020  113.2490  136.1440 N   0  0  0  0  0  0  0  0  0  0  0  0
  123.4600  114.6040  136.4780 C   0  0  2  0  0  0  0  0  0  0  0  0
  122.5750  114.6350  137.7110 C   0  0  0  0  0  0  0  0  0  0  0  0
  121.8700  113.6760  138.0290 O   0  0  0  0  0  0  0  0  0  0  0  0
  122.6820  115.0420  135.2320 C   0  0  0  0  0  0  0  0  0  0  0  0
  123.0090  114.0340  134.1800 C   0  0  0  0  0  0  0  0  0  0  0  0
  123.2860  112.7690  134.9010 C   0  0  0  0  0  0  0  0  0  0  0  0
  122.6240  115.7680  138.4090 N   0  0  0  0  0  0  0  0  0  0  0  0
  121.7560  116.0210  139.5440 C   0  0  2  0  0  0  0  0  0  0  0  0
  120.3100  116.1090  139.0640 C   0  0  0  0  0  0  0  0  0  0  0  0
  120.0540  116.2250  137.8640 O   0  0  0  0  0  0  0  0  0  0  0  0
  122.1880  117.3060  140.2490 C   0  0  0  0  0  0  0  0  0  0  0  0
  122.4620  118.3310  139.3140 O   0  0  0  0  0  0  0  0  0  0  0  0
  119.6190  119.2030  136.8340 N   0  0  0  0  0  0  0  0  0  0  0  0
  120.2290  119.1410  135.5090 C   0  0  2  0  0  0  0  0  0  0  0  0
  119.4600  118.1950  134.6000 C   0  0  0  0  0  0  0  0  0  0  0  0
  119.1700  118.5250  133.4450 O   0  0  0  0  0  0  0  0  0  0  0  0
  121.6890  118.7070  135.6120 C   0  0  0  0  0  0  0  0  0  0  0  0
  122.5710  119.6550  136.3930 C   0  0  0  0  0  0  0  0  0  0  0  0
  124.0250  119.2360  136.3750 C   0  0  0  0  0  0  0  0  0  0  0  0
  124.7730  119.7200  135.5030 O   0  0  0  0  0  0  0  0  0  0  0  0
  124.4180  118.4160  137.2300 O   0  0  0  0  0  0  0  0  0  0  0  0
  123.1680  115.3400  125.6670 N   0  0  0  0  0  0  0  0  0  0  0  0
  123.2640  116.0600  126.9330 C   0  0  2  0  0  0  0  0  0  0  0  0
  124.3530  117.1200  126.8920 C   0  0  0  0  0  0  0  0  0  0  0  0
  124.1880  118.2090  127.4500 O   0  0  0  0  0  0  0  0  0  0  0  0
  123.5170  115.0880  128.0810 C   0  0  0  0  0  0  0  0  0  0  0  0
  123.4530  115.7280  129.4350 C   0  0  0  0  0  0  0  0  0  0  0  0
  122.3380  116.4430  129.8210 C   0  0  0  0  0  0  0  0  0  0  0  0
  124.5040  115.6150  130.3190 C   0  0  0  0  0  0  0  0  0  0  0  0
  122.2740  117.0320  131.0620 C   0  0  0  0  0  0  0  0  0  0  0  0
  124.4440  116.2030  131.5610 C   0  0  0  0  0  0  0  0  0  0  0  0
  123.3280  116.9130  131.9310 C   0  0  0  0  0  0  0  0  0  0  0  0
  124.2080  121.0950  127.5640 N   0  0  0  0  0  0  0  0  0  0  0  0
  125.0380  121.7680  128.5550 C   0  0  2  0  0  0  0  0  0  0  0  0
  125.7840  122.9380  127.9300 C   0  0  0  0  0  0  0  0  0  0  0  0
  125.8300  124.0330  128.4990 O   0  0  0  0  0  0  0  0  0  0  0  0
  126.0150  120.7790  129.1850 C   0  0  0  0  0  0  0  0  0  0  0  0
  125.4670  119.9860  130.3670 C   0  0  0  0  0  0  0  0  0  0  0  0
  126.5780  119.2100  131.0400 C   0  0  0  0  0  0  0  0  0  0  0  0
  124.7930  120.9160  131.3490 C   0  0  0  0  0  0  0  0  0  0  0  0
  126.3710  122.7270  126.7510 N   0  0  0  0  0  0  0  0  0  0  0  0
  127.0100  123.8290  126.0430 C   0  0  2  0  0  0  0  0  0  0  0  0
  126.0190  124.9020  125.6200 C   0  0  0  0  0  0  0  0  0  0  0  0
  126.4450  125.9880  125.2170 O   0  0  0  0  0  0  0  0  0  0  0  0
  127.7610  123.3100  124.8190 C   0  0  0  0  0  0  0  0  0  0  0  0
  128.8290  122.2840  125.1360 C   0  0  0  0  0  0  0  0  0  0  0  0
  129.2340  121.4820  123.9170 C   0  0  0  0  0  0  0  0  0  0  0  0
  129.1320  121.9570  122.7860 O   0  0  0  0  0  0  0  0  0  0  0  0
  129.6920  120.2550  124.1410 N   0  0  0  0  0  0  0  0  0  0  0  0
  123.4470  125.7010  127.8880 N   0  0  0  0  0  0  0  0  0  0  0  0
  123.1690  126.3550  129.1630 C   0  0  2  0  0  0  0  0  0  0  0  0
  124.1930  127.4480  129.4330 C   0  0  0  0  0  0  0  0  0  0  0  0
  123.8610  128.5080  129.9760 O   0  0  0  0  0  0  0  0  0  0  0  0
  123.1340  125.3190  130.2980 C   0  0  0  0  0  0  0  0  0  0  0  0
  122.9940  126.0070  131.6370 C   0  0  0  0  0  0  0  0  0  0  0  0
  121.9910  124.3580  130.0870 C   0  0  0  0  0  0  0  0  0  0  0  0
  125.4530  127.2130  129.0600 N   0  0  0  0  0  0  0  0  0  0  0  0
  126.4670  128.2500  129.2050 C   0  0  2  0  0  0  0  0  0  0  0  0
  126.1300  129.4760  128.3700 C   0  0  0  0  0  0  0  0  0  0  0  0
  126.4450  130.6030  128.7670 O   0  0  0  0  0  0  0  0  0  0  0  0
  127.8380  127.7040  128.8110 C   0  0  0  0  0  0  0  0  0  0  0  0
  128.2090  126.4090  129.5000 C   0  0  0  0  0  0  0  0  0  0  0  0
  129.4550  125.7810  128.9160 C   0  0  0  0  0  0  0  0  0  0  0  0
  130.1480  126.3920  128.1030 O   0  0  0  0  0  0  0  0  0  0  0  0
  129.7490  124.5540  129.3270 N   0  0  0  0  0  0  0  0  0  0  0  0
  125.8910  131.4520  124.3790 N   0  0  0  0  0  0  0  0  0  0  0  0
  126.8330  132.0860  123.4750 C   0  0  2  0  0  0  0  0  0  0  0  0
  126.3210  133.4660  123.0870 C   0  0  0  0  0  0  0  0  0  0  0  0
  125.1150  133.7280  123.1510 O   0  0  0  0  0  0  0  0  0  0  0  0
  127.0420  131.2250  122.2220 C   0  0  0  0  0  0  0  0  0  0  0  0
  127.5600  129.8400  122.5350 C   0  0  0  0  0  0  0  0  0  0  0  0
  128.7550  129.9150  123.4620 C   0  0  0  0  0  0  0  0  0  0  0  0
  129.1250  128.6080  123.9890 N   0  0  0  0  0  0  0  0  0  0  0  0
  130.2070  127.9370  123.6170 C   0  0  0  0  0  0  0  0  0  0  0  0
  131.0300  128.4540  122.7170 N   0  0  0  0  0  0  0  0  0  0  0  0
  130.4700  126.7510  124.1470 N   0  0  0  0  0  0  0  0  0  0  0  0
  131.3480  124.5470  117.2240 N   0  0  0  0  0  0  0  0  0  0  0  0
  132.4670  125.4620  117.4110 C   0  0  2  0  0  0  0  0  0  0  0  0
  133.7630  124.7230  117.1230 C   0  0  0  0  0  0  0  0  0  0  0  0
  134.0340  123.6800  117.7250 O   0  0  0  0  0  0  0  0  0  0  0  0
  132.4790  126.0420  118.8280 C   0  0  0  0  0  0  0  0  0  0  0  0
  132.1280  125.0430  119.9120 C   0  0  0  0  0  0  0  0  0  0  0  0
  132.0740  125.6780  121.2850 C   0  0  0  0  0  0  0  0  0  0  0  0
  132.0980  126.9240  121.3620 O   0  0  0  0  0  0  0  0  0  0  0  0
  132.0110  124.9330  122.2850 O   0  0  0  0  0  0  0  0  0  0  0  0
  2  1  1  1
  3  2  1  0
  4  3  2  0
  5  2  1  0
  6  5  1  0
  8  7  1  1
  9  8  1  0
 10  9  2  0
 11  8  1  0
 12 11  1  0
 13 12  1  0
 14 12  2  0
 15 13  2  0
 16 15  1  0
 16 14  1  0
 18 17  1  6
 19 18  1  0
 20 19  2  0
 21 18  1  0
 22 21  1  0
 21 23  1  1
 24 19  1  0
 25 24  1  1
 26 25  1  0
 27 26  2  0
 28 25  1  0
 29 28  1  0
 30 28  1  0
 31 26  1  0
 32 31  1  0
 32 33  1  1
 34 33  2  0
 35 32  1  0
 36 35  1  0
 37 36  1  0
 37 31  1  0
 38 33  1  0
 39 38  1  0
 40 39  1  0
 41 40  2  0
 39 42  1  6
 43 42  1  0
 45 44  1  1
 46 45  1  0
 47 46  2  0
 48 45  1  0
 49 48  1  0
 50 49  1  0
 51 50  2  0
 52 50  1  0
 54 53  1  6
 55 54  1  0
 56 55  2  0
 57 54  1  0
 58 57  1  0
 59 58  2  0
 60 58  1  0
 61 59  1  0
 62 60  2  0
 63 62  1  0
 63 61  2  0
 65 64  1  6
 66 65  1  0
 67 66  2  0
 68 65  1  0
 69 68  1  0
 70 69  1  0
 71 69  1  0
 72 66  1  0
 73 72  1  0
 74 73  1  0
 75 74  2  0
 73 76  1  6
 77 76  1  0
 78 77  1  0
 79 78  2  0
 80 78  1  0
 82 81  1  6
 83 82  1  0
 84 83  2  0
 85 82  1  0
 86 85  1  0
 87 85  1  0
 88 83  1  0
 89 88  1  0
 90 89  1  0
 91 90  2  0
 89 92  1  6
 93 92  1  0
 94 93  1  0
 95 94  2  0
 96 94  1  0
 98 97  1  1
 99 98  1  0
100 99  2  0
101 98  1  0
102101  1  0
103102  1  0
104103  1  0
105104  1  0
106105  1  0
107105  2  0
109108  1  1
110109  1  0
111110  2  0
112109  1  0
113112  1  0
114113  1  0
115114  2  0
116114  1  0
M  END
$$$$
