
     RDKit          3D

113107  0  0  0  0  0  0  0  0999 V2000
  124.6120  128.2540  138.5890 N   0  0  0  0  0  0  0  0  0  0  0  0
  124.1620  127.2860  137.5940 C   0  0  2  0  0  0  0  0  0  0  0  0
  122.8560  126.6180  138.0090 C   0  0  0  0  0  0  0  0  0  0  0  0
  121.9800  126.3770  137.1680 O   0  0  0  0  0  0  0  0  0  0  0  0
  125.2500  126.2400  137.3530 C   0  0  0  0  0  0  0  0  0  0  0  0
  125.4660  125.4530  138.5100 O   0  0  0  0  0  0  0  0  0  0  0  0
  119.3100  126.2520  135.9130 N   0  0  0  0  0  0  0  0  0  0  0  0
  118.5840  125.0060  135.6940 C   0  0  2  0  0  0  0  0  0  0  0  0
  117.1620  125.0910  136.2380 C   0  0  0  0  0  0  0  0  0  0  0  0
  116.2190  124.5940  135.6130 O   0  0  0  0  0  0  0  0  0  0  0  0
  119.3390  123.8410  136.3270 C   0  0  0  0  0  0  0  0  0  0  0  0
  120.6830  123.5880  135.7210 C   0  0  0  0  0  0  0  0  0  0  0  0
  120.8540  123.2870  134.3880 N   0  0  0  0  0  0  0  0  0  0  0  0
  121.9200  123.5720  136.2710 C   0  0  0  0  0  0  0  0  0  0  0  0
  122.1380  123.1050  134.1410 C   0  0  0  0  0  0  0  0  0  0  0  0
  122.8070  123.2730  135.2670 N   0  0  0  0  0  0  0  0  0  0  0  0
  130.3430  113.0710  135.4330 N   0  0  0  0  0  0  0  0  0  0  0  0
  129.6030  112.9000  136.6730 C   0  0  2  0  0  0  0  0  0  0  0  0
  128.1260  112.6810  136.3770 C   0  0  0  0  0  0  0  0  0  0  0  0
  127.5710  113.2940  135.4610 O   0  0  0  0  0  0  0  0  0  0  0  0
  129.7700  114.1240  137.5760 C   0  0  2  0  0  0  0  0  0  0  0  0
  131.1610  114.3660  137.7940 O   0  0  0  0  0  0  0  0  0  0  0  0
  129.1060  113.9000  138.9200 C   0  0  0  0  0  0  0  0  0  0  0  0
  124.5460  113.6360  136.8110 N   0  0  0  0  0  0  0  0  0  0  0  0
  124.0950  114.9860  137.1590 C   0  0  2  0  0  0  0  0  0  0  0  0
  123.2760  115.0130  138.4390 C   0  0  0  0  0  0  0  0  0  0  0  0
  122.6940  114.0160  138.8680 O   0  0  0  0  0  0  0  0  0  0  0  0
  123.2410  115.3970  135.9550 C   0  0  0  0  0  0  0  0  0  0  0  0
  123.5890  114.4350  134.8780 C   0  0  0  0  0  0  0  0  0  0  0  0
  123.9490  113.1670  135.5530 C   0  0  0  0  0  0  0  0  0  0  0  0
  120.1840  119.5830  137.5790 N   0  0  0  0  0  0  0  0  0  0  0  0
  120.8000  119.5580  136.2560 C   0  0  2  0  0  0  0  0  0  0  0  0
  120.0660  118.6040  135.3280 C   0  0  0  0  0  0  0  0  0  0  0  0
  119.7970  118.9400  134.1700 O   0  0  0  0  0  0  0  0  0  0  0  0
  122.2730  119.1720  136.3630 C   0  0  0  0  0  0  0  0  0  0  0  0
  123.1190  120.1780  137.1110 C   0  0  0  0  0  0  0  0  0  0  0  0
  124.5860  119.8100  137.1220 C   0  0  0  0  0  0  0  0  0  0  0  0
  124.9980  118.9800  136.2880 O   0  0  0  0  0  0  0  0  0  0  0  0
  125.3290  120.3510  137.9660 O   0  0  0  0  0  0  0  0  0  0  0  0
  123.8700  115.9670  126.5330 N   0  0  0  0  0  0  0  0  0  0  0  0
  123.8980  116.6270  127.8320 C   0  0  2  0  0  0  0  0  0  0  0  0
  124.9690  117.7060  127.8730 C   0  0  0  0  0  0  0  0  0  0  0  0
  124.7520  118.7850  128.4320 O   0  0  0  0  0  0  0  0  0  0  0  0
  124.1250  115.6100  128.9440 C   0  0  0  0  0  0  0  0  0  0  0  0
  124.0370  116.1970  130.3180 C   0  0  0  0  0  0  0  0  0  0  0  0
  122.8750  116.8020  130.7500 C   0  0  0  0  0  0  0  0  0  0  0  0
  125.1160  116.1560  131.1720 C   0  0  0  0  0  0  0  0  0  0  0  0
  122.7910  117.3450  132.0050 C   0  0  0  0  0  0  0  0  0  0  0  0
  125.0350  116.6990  132.4290 C   0  0  0  0  0  0  0  0  0  0  0  0
  123.8710  117.2950  132.8440 C   0  0  0  0  0  0  0  0  0  0  0  0
  126.1320  117.4360  127.2820 N   0  0  0  0  0  0  0  0  0  0  0  0
  127.1890  118.4380  127.2640 C   0  0  2  0  0  0  0  0  0  0  0  0
  126.8460  119.5940  126.3390 C   0  0  0  0  0  0  0  0  0  0  0  0
  127.1940  120.7440  126.6310 O   0  0  0  0  0  0  0  0  0  0  0  0
  128.5090  117.7990  126.8510 C   0  0  0  0  0  0  0  0  0  0  0  0
  129.2310  117.1400  127.9820 C   0  0  0  0  0  0  0  0  0  0  0  0
  130.3910  116.4190  127.8050 N   0  0  0  0  0  0  0  0  0  0  0  0
  128.9540  117.0910  129.3060 C   0  0  0  0  0  0  0  0  0  0  0  0
  130.7990  115.9570  128.9730 C   0  0  0  0  0  0  0  0  0  0  0  0
  129.9450  116.3500  129.8990 N   0  0  0  0  0  0  0  0  0  0  0  0
  124.8630  121.6780  128.6570 N   0  0  0  0  0  0  0  0  0  0  0  0
  125.6600  122.3580  129.6720 C   0  0  2  0  0  0  0  0  0  0  0  0
  126.4010  123.5470  129.0770 C   0  0  0  0  0  0  0  0  0  0  0  0
  126.5100  124.6060  129.7100 O   0  0  0  0  0  0  0  0  0  0  0  0
  126.6420  121.3810  130.3110 C   0  0  0  0  0  0  0  0  0  0  0  0
  126.0680  120.4190  131.3450 C   0  0  0  0  0  0  0  0  0  0  0  0
  127.1710  119.5770  131.9430 C   0  0  0  0  0  0  0  0  0  0  0  0
  125.3360  121.1800  132.4250 C   0  0  0  0  0  0  0  0  0  0  0  0
  126.9210  123.3900  127.8580 N   0  0  0  0  0  0  0  0  0  0  0  0
  127.5640  124.5100  127.1820 C   0  0  2  0  0  0  0  0  0  0  0  0
  126.5780  125.6370  126.9050 C   0  0  0  0  0  0  0  0  0  0  0  0
  126.9670  126.8080  126.8820 O   0  0  0  0  0  0  0  0  0  0  0  0
  128.2160  124.0350  125.8870 C   0  0  0  0  0  0  0  0  0  0  0  0
  129.4000  123.1180  126.1050 C   0  0  0  0  0  0  0  0  0  0  0  0
  129.8980  122.4990  124.8180 C   0  0  0  0  0  0  0  0  0  0  0  0
  129.4350  122.8400  123.7300 O   0  0  0  0  0  0  0  0  0  0  0  0
  130.8470  121.5770  124.9340 N   0  0  0  0  0  0  0  0  0  0  0  0
  124.0940  126.2280  128.9910 N   0  0  0  0  0  0  0  0  0  0  0  0
  123.8720  126.7860  130.3210 C   0  0  2  0  0  0  0  0  0  0  0  0
  124.9530  127.8000  130.6660 C   0  0  0  0  0  0  0  0  0  0  0  0
  124.6580  128.8880  131.1730 O   0  0  0  0  0  0  0  0  0  0  0  0
  123.7980  125.6650  131.3710 C   0  0  0  0  0  0  0  0  0  0  0  0
  123.7770  126.2530  132.7620 C   0  0  0  0  0  0  0  0  0  0  0  0
  122.5610  124.8400  131.1520 C   0  0  0  0  0  0  0  0  0  0  0  0
  126.2190  127.4710  130.3980 N   0  0  0  0  0  0  0  0  0  0  0  0
  127.2720  128.4190  130.7440 C   0  0  2  0  0  0  0  0  0  0  0  0
  127.2170  129.6900  129.9060 C   0  0  0  0  0  0  0  0  0  0  0  0
  127.8840  130.6680  130.2570 O   0  0  0  0  0  0  0  0  0  0  0  0
  128.6530  127.7700  130.6280 C   0  0  0  0  0  0  0  0  0  0  0  0
  128.9740  127.1540  129.2850 C   0  0  0  0  0  0  0  0  0  0  0  0
  130.0880  126.1290  129.3760 C   0  0  0  0  0  0  0  0  0  0  0  0
  130.4520  125.6900  130.4660 O   0  0  0  0  0  0  0  0  0  0  0  0
  130.6360  125.7410  128.2300 N   0  0  0  0  0  0  0  0  0  0  0  0
  126.8360  131.9270  126.0200 N   0  0  0  0  0  0  0  0  0  0  0  0
  127.7150  132.5400  125.0400 C   0  0  2  0  0  0  0  0  0  0  0  0
  127.2470  133.9600  124.7510 C   0  0  0  0  0  0  0  0  0  0  0  0
  126.0860  134.3000  125.0030 O   0  0  0  0  0  0  0  0  0  0  0  0
  127.7350  131.7250  123.7390 C   0  0  0  0  0  0  0  0  0  0  0  0
  128.2560  130.3180  123.9040 C   0  0  0  0  0  0  0  0  0  0  0  0
  129.4850  130.2870  124.7860 C   0  0  0  0  0  0  0  0  0  0  0  0
  129.7810  128.9390  125.2540 N   0  0  0  0  0  0  0  0  0  0  0  0
  130.9550  128.3420  125.1000 C   0  0  0  0  0  0  0  0  0  0  0  0
  131.9450  128.9800  124.4960 N   0  0  0  0  0  0  0  0  0  0  0  0
  131.1410  127.1120  125.5530 N   0  0  0  0  0  0  0  0  0  0  0  0
  132.2480  125.0580  118.7680 N   0  0  0  0  0  0  0  0  0  0  0  0
  133.3900  125.9560  118.7800 C   0  0  2  0  0  0  0  0  0  0  0  0
  134.6770  125.1500  118.8310 C   0  0  0  0  0  0  0  0  0  0  0  0
  134.7730  124.1590  119.5610 O   0  0  0  0  0  0  0  0  0  0  0  0
  133.3260  126.9250  119.9620 C   0  0  0  0  0  0  0  0  0  0  0  0
  133.1110  126.2630  121.3040 C   0  0  0  0  0  0  0  0  0  0  0  0
  133.4120  127.1960  122.4550 C   0  0  0  0  0  0  0  0  0  0  0  0
  133.8780  128.3250  122.1990 O   0  0  0  0  0  0  0  0  0  0  0  0
  133.1820  126.8030  123.6170 O   0  0  0  0  0  0  0  0  0  0  0  0
  2  1  1  1
  3  2  1  0
  4  3  2  0
  5  2  1  0
  6  5  1  0
  8  7  1  1
  9  8  1  0
 10  9  2  0
 11  8  1  0
 12 11  1  0
 13 12  1  0
 14 12  2  0
 15 13  2  0
 16 15  1  0
 16 14  1  0
 18 17  1  6
 19 18  1  0
 20 19  2  0
 21 18  1  0
 22 21  1  0
 21 23  1  1
 25 24  1  0
 25 26  1  1
 27 26  2  0
 28 25  1  0
 29 28  1  0
 30 29  1  0
 30 24  1  0
 32 31  1  1
 33 32  1  0
 34 33  2  0
 35 32  1  0
 36 35  1  0
 37 36  1  0
 38 37  2  0
 39 37  1  0
 41 40  1  6
 42 41  1  0
 43 42  2  0
 44 41  1  0
 45 44  1  0
 46 45  2  0
 47 45  1  0
 48 46  1  0
 49 47  2  0
 50 49  1  0
 50 48  2  0
 51 42  1  0
 52 51  1  0
 53 52  1  0
 54 53  2  0
 52 55  1  6
 56 55  1  0
 57 56  1  0
 58 56  2  0
 59 57  2  0
 60 59  1  0
 60 58  1  0
 62 61  1  6
 63 62  1  0
 64 63  2  0
 65 62  1  0
 66 65  1  0
 67 66  1  0
 68 66  1  0
 69 63  1  0
 70 69  1  0
 71 70  1  0
 72 71  2  0
 70 73  1  6
 74 73  1  0
 75 74  1  0
 76 75  2  0
 77 75  1  0
 79 78  1  6
 80 79  1  0
 81 80  2  0
 82 79  1  0
 83 82  1  0
 84 82  1  0
 85 80  1  0
 86 85  1  0
 87 86  1  0
 88 87  2  0
 86 89  1  6
 90 89  1  0
 91 90  1  0
 92 91  2  0
 93 91  1  0
 95 94  1  1
 96 95  1  0
 97 96  2  0
 98 95  1  0
 99 98  1  0
100 99  1  0
101100  1  0
102101  1  0
103102  1  0
104102  2  0
106105  1  1
107106  1  0
108107  2  0
109106  1  0
110109  1  0
111110  1  0
112111  2  0
113111  1  0
M  END
$$$$
