
     RDKit          3D

 96 92  0  0  0  0  0  0  0  0999 V2000
  123.5990  128.6790  138.8100 N   0  0  0  0  0  0  0  0  0  0  0  0
  123.1900  127.6740  137.8350 C   0  0  2  0  0  0  0  0  0  0  0  0
  121.8340  127.0740  138.1890 C   0  0  0  0  0  0  0  0  0  0  0  0
  120.9790  126.8830  137.3120 O   0  0  0  0  0  0  0  0  0  0  0  0
  124.2530  126.5820  137.7350 C   0  0  0  0  0  0  0  0  0  0  0  0
  123.7870  125.4920  136.9610 O   0  0  0  0  0  0  0  0  0  0  0  0
  118.3600  126.5680  135.9840 N   0  0  0  0  0  0  0  0  0  0  0  0
  117.6300  125.3250  135.7690 C   0  0  2  0  0  0  0  0  0  0  0  0
  116.1940  125.4310  136.2740 C   0  0  0  0  0  0  0  0  0  0  0  0
  115.2650  124.9360  135.6280 O   0  0  0  0  0  0  0  0  0  0  0  0
  118.3590  124.1640  136.4390 C   0  0  0  0  0  0  0  0  0  0  0  0
  119.7460  123.9450  135.9210 C   0  0  0  0  0  0  0  0  0  0  0  0
  120.0040  123.5460  134.6280 N   0  0  0  0  0  0  0  0  0  0  0  0
  120.9510  124.0520  136.5270 C   0  0  0  0  0  0  0  0  0  0  0  0
  121.3080  123.4270  134.4570 C   0  0  0  0  0  0  0  0  0  0  0  0
  121.9060  123.7290  135.5950 N   0  0  0  0  0  0  0  0  0  0  0  0
  129.3170  112.9090  135.8870 N   0  0  0  0  0  0  0  0  0  0  0  0
  128.5190  112.5520  137.0470 C   0  0  2  0  0  0  0  0  0  0  0  0
  127.0360  112.6410  136.7160 C   0  0  0  0  0  0  0  0  0  0  0  0
  126.6290  113.2890  135.7490 O   0  0  0  0  0  0  0  0  0  0  0  0
  128.8360  113.4590  138.2380 C   0  0  2  0  0  0  0  0  0  0  0  0
  127.9250  113.1830  139.3070 O   0  0  0  0  0  0  0  0  0  0  0  0
  128.7110  114.9060  137.8390 C   0  0  0  0  0  0  0  0  0  0  0  0
  126.2300  111.9760  137.5350 N   0  0  0  0  0  0  0  0  0  0  0  0
  124.7770  112.0140  137.3350 C   0  0  2  0  0  0  0  0  0  0  0  0
  124.2560  113.3900  137.7300 C   0  0  0  0  0  0  0  0  0  0  0  0
  124.7470  113.9760  138.7120 O   0  0  0  0  0  0  0  0  0  0  0  0
  124.0950  110.9080  138.1430 C   0  0  0  0  0  0  0  0  0  0  0  0
  124.5010  109.5490  137.6190 C   0  0  0  0  0  0  0  0  0  0  0  0
  124.4380  111.0280  139.6150 C   0  0  0  0  0  0  0  0  0  0  0  0
  123.2970  113.9510  137.0020 N   0  0  0  0  0  0  0  0  0  0  0  0
  122.8230  115.2980  137.3270 C   0  0  2  0  0  0  0  0  0  0  0  0
  121.9780  115.3160  138.5890 C   0  0  0  0  0  0  0  0  0  0  0  0
  121.3260  114.3330  138.9480 O   0  0  0  0  0  0  0  0  0  0  0  0
  121.9870  115.6840  136.1010 C   0  0  0  0  0  0  0  0  0  0  0  0
  122.3870  114.7190  135.0340 C   0  0  0  0  0  0  0  0  0  0  0  0
  122.7260  113.4590  135.7410 C   0  0  0  0  0  0  0  0  0  0  0  0
  121.9990  116.4620  139.2640 N   0  0  0  0  0  0  0  0  0  0  0  0
  121.1430  116.6990  140.4110 C   0  0  2  0  0  0  0  0  0  0  0  0
  119.6880  116.7410  139.9490 C   0  0  0  0  0  0  0  0  0  0  0  0
  119.4120  116.7400  138.7480 O   0  0  0  0  0  0  0  0  0  0  0  0
  121.5560  117.9980  141.1020 C   0  0  0  0  0  0  0  0  0  0  0  0
  121.8340  119.0130  140.1560 O   0  0  0  0  0  0  0  0  0  0  0  0
  119.0470  119.8920  137.7380 N   0  0  0  0  0  0  0  0  0  0  0  0
  119.7210  119.8210  136.4450 C   0  0  2  0  0  0  0  0  0  0  0  0
  118.9990  118.8690  135.5030 C   0  0  0  0  0  0  0  0  0  0  0  0
  118.7650  119.2000  134.3370 O   0  0  0  0  0  0  0  0  0  0  0  0
  121.1750  119.3920  136.6270 C   0  0  0  0  0  0  0  0  0  0  0  0
  122.0610  120.4460  137.2600 C   0  0  0  0  0  0  0  0  0  0  0  0
  123.5000  119.9910  137.3950 C   0  0  0  0  0  0  0  0  0  0  0  0
  123.7310  118.7700  137.5110 O   0  0  0  0  0  0  0  0  0  0  0  0
  124.4010  120.8540  137.3830 O   0  0  0  0  0  0  0  0  0  0  0  0
  122.9560  116.2900  126.7210 N   0  0  0  0  0  0  0  0  0  0  0  0
  122.9830  116.9520  128.0210 C   0  0  2  0  0  0  0  0  0  0  0  0
  124.0670  118.0190  128.0760 C   0  0  0  0  0  0  0  0  0  0  0  0
  123.8800  119.0740  128.6920 O   0  0  0  0  0  0  0  0  0  0  0  0
  123.1880  115.9270  129.1340 C   0  0  0  0  0  0  0  0  0  0  0  0
  123.1260  116.5120  130.5140 C   0  0  0  0  0  0  0  0  0  0  0  0
  122.0270  117.2430  130.9200 C   0  0  0  0  0  0  0  0  0  0  0  0
  124.1640  116.3280  131.4060 C   0  0  0  0  0  0  0  0  0  0  0  0
  121.9660  117.7830  132.1860 C   0  0  0  0  0  0  0  0  0  0  0  0
  124.1070  116.8660  132.6730 C   0  0  0  0  0  0  0  0  0  0  0  0
  123.0070  117.5940  133.0620 C   0  0  0  0  0  0  0  0  0  0  0  0
  123.9240  121.9870  128.8260 N   0  0  0  0  0  0  0  0  0  0  0  0
  124.7640  122.6310  129.8310 C   0  0  2  0  0  0  0  0  0  0  0  0
  125.4790  123.8450  129.2500 C   0  0  0  0  0  0  0  0  0  0  0  0
  125.5250  124.9140  129.8720 O   0  0  0  0  0  0  0  0  0  0  0  0
  125.7690  121.6290  130.3920 C   0  0  0  0  0  0  0  0  0  0  0  0
  125.2480  120.6990  131.4850 C   0  0  0  0  0  0  0  0  0  0  0  0
  126.3790  119.8690  132.0600 C   0  0  0  0  0  0  0  0  0  0  0  0
  124.5560  121.4920  132.5740 C   0  0  0  0  0  0  0  0  0  0  0  0
  126.0510  123.6950  128.0530 N   0  0  0  0  0  0  0  0  0  0  0  0
  126.6570  124.8330  127.3730 C   0  0  2  0  0  0  0  0  0  0  0  0
  125.6360  125.9360  127.1280 C   0  0  0  0  0  0  0  0  0  0  0  0
  125.9690  127.1250  127.1860 O   0  0  0  0  0  0  0  0  0  0  0  0
  127.2840  124.3830  126.0550 C   0  0  0  0  0  0  0  0  0  0  0  0
  128.5850  123.6210  126.2040 C   0  0  0  0  0  0  0  0  0  0  0  0
  129.2850  123.4200  124.8750 C   0  0  0  0  0  0  0  0  0  0  0  0
  128.6620  123.0380  123.8850 O   0  0  0  0  0  0  0  0  0  0  0  0
  130.5860  123.6820  124.8450 N   0  0  0  0  0  0  0  0  0  0  0  0
  123.1410  126.5570  129.1290 N   0  0  0  0  0  0  0  0  0  0  0  0
  122.9640  127.1740  130.4400 C   0  0  2  0  0  0  0  0  0  0  0  0
  124.0960  128.1520  130.7210 C   0  0  0  0  0  0  0  0  0  0  0  0
  123.8840  129.2150  131.3170 O   0  0  0  0  0  0  0  0  0  0  0  0
  122.8580  126.0920  131.5290 C   0  0  0  0  0  0  0  0  0  0  0  0
  123.0220  126.6990  132.9080 C   0  0  0  0  0  0  0  0  0  0  0  0
  121.5280  125.3810  131.4260 C   0  0  0  0  0  0  0  0  0  0  0  0
  125.3150  127.8140  130.2940 N   0  0  0  0  0  0  0  0  0  0  0  0
  126.4080  128.7800  130.3520 C   0  0  2  0  0  0  0  0  0  0  0  0
  126.0490  130.0470  129.5870 C   0  0  0  0  0  0  0  0  0  0  0  0
  126.2160  131.1630  130.0910 O   0  0  0  0  0  0  0  0  0  0  0  0
  127.6920  128.1710  129.7890 C   0  0  0  0  0  0  0  0  0  0  0  0
  128.2360  126.9980  130.5700 C   0  0  0  0  0  0  0  0  0  0  0  0
  129.4670  126.3960  129.9220 C   0  0  0  0  0  0  0  0  0  0  0  0
  129.8320  125.2540  130.1960 O   0  0  0  0  0  0  0  0  0  0  0  0
  130.1140  127.1660  129.0560 N   0  0  0  0  0  0  0  0  0  0  0  0
  2  1  1  1
  3  2  1  0
  4  3  2  0
  5  2  1  0
  6  5  1  0
  8  7  1  1
  9  8  1  0
 10  9  2  0
 11  8  1  0
 12 11  1  0
 13 12  1  0
 14 12  2  0
 15 13  2  0
 16 15  1  0
 16 14  1  0
 18 17  1  6
 19 18  1  0
 20 19  2  0
 21 18  1  0
 22 21  1  0
 21 23  1  6
 24 19  1  0
 25 24  1  1
 26 25  1  0
 27 26  2  0
 28 25  1  0
 29 28  1  0
 30 28  1  0
 31 26  1  0
 32 31  1  0
 32 33  1  1
 34 33  2  0
 35 32  1  0
 36 35  1  0
 37 31  1  0
 37 36  1  0
 38 33  1  0
 39 38  1  0
 40 39  1  0
 41 40  2  0
 39 42  1  6
 43 42  1  0
 45 44  1  1
 46 45  1  0
 47 46  2  0
 48 45  1  0
 49 48  1  0
 50 49  1  0
 51 50  2  0
 52 50  1  0
 54 53  1  6
 55 54  1  0
 56 55  2  0
 57 54  1  0
 58 57  1  0
 59 58  2  0
 60 58  1  0
 61 59  1  0
 62 60  2  0
 63 62  1  0
 63 61  2  0
 65 64  1  6
 66 65  1  0
 67 66  2  0
 68 65  1  0
 69 68  1  0
 70 69  1  0
 71 69  1  0
 72 66  1  0
 73 72  1  0
 74 73  1  0
 75 74  2  0
 73 76  1  6
 77 76  1  0
 78 77  1  0
 79 78  2  0
 80 78  1  0
 82 81  1  6
 83 82  1  0
 84 83  2  0
 85 82  1  0
 86 85  1  0
 87 85  1  0
 88 83  1  0
 89 88  1  0
 90 89  1  0
 91 90  2  0
 89 92  1  6
 93 92  1  0
 94 93  1  0
 95 94  2  0
 96 94  1  0
M  END
$$$$
