
     RDKit          3D

147146  0  0  0  0  0  0  0  0999 V2000
   20.7150   19.5940    7.6400 N   0  0  0  0  0  0  0  0  0  0  0  0
   19.9840   19.4560    6.3850 C   0  0  2  0  0  0  0  0  0  0  0  0
   19.7620   20.8090    5.7300 C   0  0  0  0  0  0  0  0  0  0  0  0
   19.8190   20.9250    4.5000 O   0  0  0  0  0  0  0  0  0  0  0  0
   18.6590   18.7340    6.6120 C   0  0  0  0  0  0  0  0  0  0  0  0
   18.8450   17.2650    6.9420 C   0  0  0  0  0  0  0  0  0  0  0  0
   17.5520   16.6500    7.4600 C   0  0  0  0  0  0  0  0  0  0  0  0
   17.7530   15.1790    7.7940 C   0  0  0  0  0  0  0  0  0  0  0  0
   18.3800   14.9910    9.1330 N   0  0  0  0  0  0  0  0  0  0  0  0
   21.7570   21.4180    2.3550 N   0  0  0  0  0  0  0  0  0  0  0  0
   20.9890   21.1360    1.1590 C   0  0  2  0  0  0  0  0  0  0  0  0
   19.9720   22.1990    0.8090 C   0  0  0  0  0  0  0  0  0  0  0  0
   19.3070   22.0560   -0.2170 O   0  0  0  0  0  0  0  0  0  0  0  0
   20.2690   19.7860    1.2970 C   0  0  0  0  0  0  0  0  0  0  0  0
   21.1770   18.6570    1.6730 C   0  0  0  0  0  0  0  0  0  0  0  0
   22.4050   18.5020    1.0530 C   0  0  0  0  0  0  0  0  0  0  0  0
   20.7990   17.7290    2.6380 C   0  0  0  0  0  0  0  0  0  0  0  0
   23.2480   17.4690    1.3980 C   0  0  0  0  0  0  0  0  0  0  0  0
   21.6340   16.7070    2.9970 C   0  0  0  0  0  0  0  0  0  0  0  0
   22.8610   16.5750    2.3780 C   0  0  0  0  0  0  0  0  0  0  0  0
   23.7000   15.5260    2.7310 O   0  0  0  0  0  0  0  0  0  0  0  0
   14.4250   20.5950    1.1900 N   0  0  0  0  0  0  0  0  0  0  0  0
   15.0800   19.5280    0.4390 C   0  0  2  0  0  0  0  0  0  0  0  0
   15.7090   18.5550    1.4270 C   0  0  0  0  0  0  0  0  0  0  0  0
   16.5050   18.9620    2.2750 O   0  0  0  0  0  0  0  0  0  0  0  0
   16.1310   20.0840   -0.5230 C   0  0  0  0  0  0  0  0  0  0  0  0
   16.7490   18.9720   -1.3890 C   0  0  0  0  0  0  0  0  0  0  0  0
   17.7000   19.5140   -2.4760 C   0  0  0  0  0  0  0  0  0  0  0  0
   17.0590   20.5730   -3.2560 N   0  0  0  0  0  0  0  0  0  0  0  0
   16.2400   20.3410   -4.2750 C   0  0  0  0  0  0  0  0  0  0  0  0
   15.9760   19.1070   -4.6850 N   0  0  0  0  0  0  0  0  0  0  0  0
   15.6370   21.3650   -4.8670 N   0  0  0  0  0  0  0  0  0  0  0  0
   15.3240   17.2790    1.3480 N   0  0  0  0  0  0  0  0  0  0  0  0
   15.8660   16.2520    2.2220 C   0  0  2  0  0  0  0  0  0  0  0  0
   16.9730   15.4350    1.5680 C   0  0  0  0  0  0  0  0  0  0  0  0
   17.8870   14.9780    2.2660 O   0  0  0  0  0  0  0  0  0  0  0  0
   14.7390   15.3060    2.6730 C   0  0  0  0  0  0  0  0  0  0  0  0
   15.1120   14.0390    3.4230 C   0  0  0  0  0  0  0  0  0  0  0  0
   15.7800   14.4240    4.7460 C   0  0  0  0  0  0  0  0  0  0  0  0
   13.8880   13.1540    3.6720 C   0  0  0  0  0  0  0  0  0  0  0  0
   16.9150   15.2330    0.2550 N   0  0  0  0  0  0  0  0  0  0  0  0
   17.8720   14.4060   -0.4670 C   0  0  2  0  0  0  0  0  0  0  0  0
   18.6400   15.2530   -1.4650 C   0  0  0  0  0  0  0  0  0  0  0  0
   18.0360   15.9480   -2.2970 O   0  0  0  0  0  0  0  0  0  0  0  0
   17.1730   13.2480   -1.1980 C   0  0  0  0  0  0  0  0  0  0  0  0
   16.4460   12.3090   -0.2730 C   0  0  0  0  0  0  0  0  0  0  0  0
   17.1560   11.4790    0.5740 C   0  0  0  0  0  0  0  0  0  0  0  0
   15.0650   12.2710   -0.2380 C   0  0  0  0  0  0  0  0  0  0  0  0
   16.5000   10.6270    1.4500 C   0  0  0  0  0  0  0  0  0  0  0  0
   14.4030   11.4160    0.6430 C   0  0  0  0  0  0  0  0  0  0  0  0
   15.1250   10.5910    1.4710 C   0  0  0  0  0  0  0  0  0  0  0  0
   19.9660   15.1790   -1.3970 N   0  0  0  0  0  0  0  0  0  0  0  0
   20.8070   15.8610   -2.3720 C   0  0  2  0  0  0  0  0  0  0  0  0
   22.1360   15.1370   -2.4220 C   0  0  0  0  0  0  0  0  0  0  0  0
   22.5990   14.6410   -1.3930 O   0  0  0  0  0  0  0  0  0  0  0  0
   20.9960   17.3420   -2.0110 C   0  0  0  0  0  0  0  0  0  0  0  0
   21.4070   18.1960   -3.1990 C   0  0  0  0  0  0  0  0  0  0  0  0
   21.5330   19.6720   -2.8400 C   0  0  0  0  0  0  0  0  0  0  0  0
   21.6170   20.4590   -4.0710 N   0  0  0  0  0  0  0  0  0  0  0  0
   22.7510   20.7820   -4.6740 C   0  0  0  0  0  0  0  0  0  0  0  0
   23.9240   20.5090   -4.1280 N   0  0  0  0  0  0  0  0  0  0  0  0
   22.7100   21.4170   -5.8400 N   0  0  0  0  0  0  0  0  0  0  0  0
   22.7290   15.0480   -3.6170 N   0  0  0  0  0  0  0  0  0  0  0  0
   23.9830   14.3100   -3.7370 C   0  0  2  0  0  0  0  0  0  0  0  0
   25.1070   15.0040   -2.9850 C   0  0  0  0  0  0  0  0  0  0  0  0
   26.0150   14.3420   -2.4960 O   0  0  0  0  0  0  0  0  0  0  0  0
   24.4020   14.1400   -5.2000 C   0  0  0  0  0  0  0  0  0  0  0  0
   23.2670   13.9010   -6.1670 C   0  0  0  0  0  0  0  0  0  0  0  0
   23.7730   13.4600   -7.5420 C   0  0  0  0  0  0  0  0  0  0  0  0
   22.6380   13.3980   -8.5620 C   0  0  0  0  0  0  0  0  0  0  0  0
   22.9500   12.5050   -9.7280 N   0  0  0  0  0  0  0  0  0  0  0  0
   15.0780   11.4330   -6.6800 N   0  0  0  0  0  0  0  0  0  0  0  0
   16.4080   11.1710   -6.1350 C   0  0  2  0  0  0  0  0  0  0  0  0
   16.6790    9.6750   -6.1110 C   0  0  0  0  0  0  0  0  0  0  0  0
   15.9170    8.9110   -5.5070 O   0  0  0  0  0  0  0  0  0  0  0  0
   16.5110   11.7540   -4.7290 C   0  0  0  0  0  0  0  0  0  0  0  0
   17.8780   11.6580   -4.1150 C   0  0  0  0  0  0  0  0  0  0  0  0
   18.8550   12.6040   -4.4010 C   0  0  0  0  0  0  0  0  0  0  0  0
   18.1910   10.6190   -3.2390 C   0  0  0  0  0  0  0  0  0  0  0  0
   20.1010   12.5260   -3.8350 C   0  0  0  0  0  0  0  0  0  0  0  0
   19.4440   10.5340   -2.6610 C   0  0  0  0  0  0  0  0  0  0  0  0
   20.3950   11.4890   -2.9710 C   0  0  0  0  0  0  0  0  0  0  0  0
   21.6480   11.4290   -2.4150 O   0  0  0  0  0  0  0  0  0  0  0  0
   17.7660    9.2600   -6.7510 N   0  0  0  0  0  0  0  0  0  0  0  0
   18.1210    7.8490   -6.8590 C   0  0  2  0  0  0  0  0  0  0  0  0
   18.9750    7.4560   -5.6560 C   0  0  0  0  0  0  0  0  0  0  0  0
   20.1170    7.9020   -5.5230 O   0  0  0  0  0  0  0  0  0  0  0  0
   18.8670    7.5980   -8.1580 C   0  0  0  0  0  0  0  0  0  0  0  0
   19.1060    6.1330   -8.4350 C   0  0  0  0  0  0  0  0  0  0  0  0
   19.9740    5.9500   -9.6560 C   0  0  0  0  0  0  0  0  0  0  0  0
   19.8010    6.6480  -10.6560 O   0  0  0  0  0  0  0  0  0  0  0  0
   20.9050    5.0040   -9.5910 N   0  0  0  0  0  0  0  0  0  0  0  0
   18.4300    6.6390   -4.7690 N   0  0  0  0  0  0  0  0  0  0  0  0
   19.1720    6.2320   -3.5780 C   0  0  2  0  0  0  0  0  0  0  0  0
   19.8240    4.8690   -3.7290 C   0  0  0  0  0  0  0  0  0  0  0  0
   20.5780    4.4510   -2.8410 O   0  0  0  0  0  0  0  0  0  0  0  0
   18.2490    6.2260   -2.3530 C   0  0  0  0  0  0  0  0  0  0  0  0
   19.5330    4.1550   -4.8110 N   0  0  0  0  0  0  0  0  0  0  0  0
   20.0890    2.8380   -5.0110 C   0  0  0  0  0  0  0  0  0  0  0  0
   20.7140    2.7670   -6.3870 C   0  0  0  0  0  0  0  0  0  0  0  0
   21.0440    3.8000   -6.9810 O   0  0  0  0  0  0  0  0  0  0  0  0
   20.8610    1.5580   -6.9130 N   0  0  0  0  0  0  0  0  0  0  0  0
   21.6220    1.3450   -8.1300 C   0  0  2  0  0  0  0  0  0  0  0  0
   20.7540    1.2890   -9.3710 C   0  0  0  0  0  0  0  0  0  0  0  0
   21.2890    1.0990  -10.4610 O   0  0  0  0  0  0  0  0  0  0  0  0
   22.4270    0.0430   -8.0200 C   0  0  0  0  0  0  0  0  0  0  0  0
   23.5170    0.2320   -7.1310 O   0  0  0  0  0  0  0  0  0  0  0  0
   19.4440    1.4300   -9.2310 N   0  0  0  0  0  0  0  0  0  0  0  0
   18.5250    1.3200  -10.3530 C   0  0  2  0  0  0  0  0  0  0  0  0
   18.0190    2.6930  -10.7680 C   0  0  0  0  0  0  0  0  0  0  0  0
   17.7550    3.5450   -9.9140 O   0  0  0  0  0  0  0  0  0  0  0  0
   17.3360    0.4290   -9.9990 C   0  0  0  0  0  0  0  0  0  0  0  0
   17.6750   -1.0350   -9.8990 C   0  0  0  0  0  0  0  0  0  0  0  0
   16.4070   -1.8790   -9.8270 C   0  0  0  0  0  0  0  0  0  0  0  0
   16.3130   -2.6360   -8.5090 C   0  0  0  0  0  0  0  0  0  0  0  0
   17.1940   -3.8410   -8.4760 N   0  0  0  0  0  0  0  0  0  0  0  0
   10.5190    2.5070   -4.2910 N   0  0  0  0  0  0  0  0  0  0  0  0
   11.6320    2.1120   -3.4340 C   0  0  2  0  0  0  0  0  0  0  0  0
   12.9640    2.6170   -3.9870 C   0  0  0  0  0  0  0  0  0  0  0  0
   13.2940    2.3660   -5.1480 O   0  0  0  0  0  0  0  0  0  0  0  0
   11.6840    0.5910   -3.2860 C   0  0  0  0  0  0  0  0  0  0  0  0
   12.7950    0.1320   -2.3960 C   0  0  0  0  0  0  0  0  0  0  0  0
   12.8640    0.5840   -1.0880 C   0  0  0  0  0  0  0  0  0  0  0  0
   13.7850   -0.7130   -2.8640 C   0  0  0  0  0  0  0  0  0  0  0  0
   13.8800    0.1750   -0.2460 C   0  0  0  0  0  0  0  0  0  0  0  0
   14.8130   -1.1170   -2.0290 C   0  0  0  0  0  0  0  0  0  0  0  0
   14.8540   -0.6780   -0.7180 C   0  0  0  0  0  0  0  0  0  0  0  0
   13.7310    3.3270   -3.1460 N   0  0  0  0  0  0  0  0  0  0  0  0
   15.0510    3.8780   -3.4940 C   0  0  2  0  0  0  0  0  0  0  0  0
   14.9790    4.9850   -4.5460 C   0  0  0  0  0  0  0  0  0  0  0  0
   16.0060    5.3670   -5.1140 O   0  0  0  0  0  0  0  0  0  0  0  0
   16.0360    2.7740   -3.9340 C   0  0  0  0  0  0  0  0  0  0  0  0
   16.8570    2.2300   -2.7580 C   0  0  0  0  0  0  0  0  0  0  0  0
   16.9080    2.8510   -1.6860 O   0  0  0  0  0  0  0  0  0  0  0  0
   17.5120    1.0880   -2.9530 N   0  0  0  0  0  0  0  0  0  0  0  0
   13.1580    8.6300   -4.4770 N   0  0  0  0  0  0  0  0  0  0  0  0
   12.3910    9.4910   -3.5870 C   0  0  2  0  0  0  0  0  0  0  0  0
   12.2510   10.8890   -4.1580 C   0  0  0  0  0  0  0  0  0  0  0  0
   13.2070   11.4520   -4.6900 O   0  0  0  0  0  0  0  0  0  0  0  0
   13.0280    9.5450   -2.1940 C   0  0  0  0  0  0  0  0  0  0  0  0
   13.1810    8.1620   -1.6600 C   0  0  0  0  0  0  0  0  0  0  0  0
   12.0660    7.4660   -1.2420 C   0  0  0  0  0  0  0  0  0  0  0  0
   14.4110    7.5280   -1.6150 C   0  0  0  0  0  0  0  0  0  0  0  0
   12.1510    6.1800   -0.7850 C   0  0  0  0  0  0  0  0  0  0  0  0
   14.5090    6.2250   -1.1450 C   0  0  0  0  0  0  0  0  0  0  0  0
   13.3650    5.5620   -0.7410 C   0  0  0  0  0  0  0  0  0  0  0  0
   13.3890    4.2710   -0.2870 O   0  0  0  0  0  0  0  0  0  0  0  0
  2  1  1  1
  3  2  1  0
  4  3  2  0
  5  2  1  0
  6  5  1  0
  7  6  1  0
  8  7  1  0
  9  8  1  0
 11 10  1  1
 12 11  1  0
 13 12  2  0
 14 11  1  0
 15 14  1  0
 16 15  2  0
 17 15  1  0
 18 16  1  0
 19 17  2  0
 20 19  1  0
 20 18  2  0
 21 20  1  0
 23 22  1  1
 24 23  1  0
 25 24  2  0
 26 23  1  0
 27 26  1  0
 28 27  1  0
 29 28  1  0
 30 29  1  0
 31 30  1  0
 32 30  2  0
 33 24  1  0
 34 33  1  0
 35 34  1  0
 36 35  2  0
 34 37  1  6
 38 37  1  0
 39 38  1  0
 40 38  1  0
 41 35  1  0
 42 41  1  0
 43 42  1  0
 44 43  2  0
 42 45  1  6
 46 45  1  0
 47 46  2  0
 48 46  1  0
 49 47  1  0
 50 48  2  0
 51 50  1  0
 51 49  2  0
 52 43  1  0
 53 52  1  0
 54 53  1  0
 55 54  2  0
 53 56  1  1
 57 56  1  0
 58 57  1  0
 59 58  1  0
 60 59  1  0
 61 60  1  0
 62 60  2  0
 63 54  1  0
 64 63  1  0
 65 64  1  0
 66 65  2  0
 64 67  1  6
 68 67  1  0
 69 68  1  0
 70 69  1  0
 71 70  1  0
 73 72  1  1
 74 73  1  0
 75 74  2  0
 76 73  1  0
 77 76  1  0
 78 77  2  0
 79 77  1  0
 80 78  1  0
 81 79  2  0
 82 81  1  0
 82 80  2  0
 83 82  1  0
 84 74  1  0
 85 84  1  0
 86 85  1  0
 87 86  2  0
 85 88  1  6
 89 88  1  0
 90 89  1  0
 91 90  2  0
 92 90  1  0
 93 86  1  0
 94 93  1  0
 95 94  1  0
 96 95  2  0
 94 97  1  1
 98 95  1  0
 99 98  1  0
100 99  1  0
101100  2  0
102100  1  0
103102  1  0
104103  1  0
105104  2  0
103106  1  1
107106  1  0
108104  1  0
109108  1  0
110109  1  0
111110  2  0
109112  1  1
113112  1  0
114113  1  0
115114  1  0
116115  1  0
118117  1  6
119118  1  0
120119  2  0
121118  1  0
122121  1  0
123122  2  0
124122  1  0
125123  1  0
126124  2  0
127126  1  0
127125  2  0
128119  1  0
129128  1  0
130129  1  0
131130  2  0
129132  1  6
133132  1  0
134133  2  0
135133  1  0
137136  1  6
138137  1  0
139138  2  0
140137  1  0
141140  1  0
142141  2  0
143141  1  0
144142  1  0
145143  2  0
146145  1  0
146144  2  0
147146  1  0
M  END
$$$$
