
     RDKit          3D

124122  0  0  0  0  0  0  0  0999 V2000
  -38.2400  -24.7220   14.3690 N   0  0  0  0  0  0  0  0  0  0  0  0
  -39.1760  -23.5970   14.2970 C   0  0  2  0  0  0  0  0  0  0  0  0
  -38.6000  -22.3920   15.0210 C   0  0  0  0  0  0  0  0  0  0  0  0
  -37.9010  -22.5400   16.0290 O   0  0  0  0  0  0  0  0  0  0  0  0
  -40.4850  -23.9310   15.0130 C   0  0  0  0  0  0  0  0  0  0  0  0
  -41.5470  -24.6530   14.2850 C   0  0  0  0  0  0  0  0  0  0  0  0
  -42.8840  -24.1510   14.7900 C   0  0  0  0  0  0  0  0  0  0  0  0
  -43.3860  -24.8870   15.9470 N   0  0  0  0  0  0  0  0  0  0  0  0
  -43.9760  -24.3090   16.9880 C   0  0  0  0  0  0  0  0  0  0  0  0
  -44.1050  -22.9960   17.0620 N   0  0  0  0  0  0  0  0  0  0  0  0
  -44.4740  -25.0670   17.9670 N   0  0  0  0  0  0  0  0  0  0  0  0
  -38.7520  -22.4270   18.8060 N   0  0  0  0  0  0  0  0  0  0  0  0
  -37.9100  -23.4010   19.4890 C   0  0  2  0  0  0  0  0  0  0  0  0
  -36.4510  -22.9800   19.5910 C   0  0  0  0  0  0  0  0  0  0  0  0
  -35.6840  -23.6640   20.2740 O   0  0  0  0  0  0  0  0  0  0  0  0
  -38.0220  -24.7720   18.7970 C   0  0  0  0  0  0  0  0  0  0  0  0
  -39.4790  -25.2690   18.8020 C   0  0  0  0  0  0  0  0  0  0  0  0
  -39.7790  -26.4420   17.8570 C   0  0  0  0  0  0  0  0  0  0  0  0
  -39.0320  -26.6550   16.8780 O   0  0  0  0  0  0  0  0  0  0  0  0
  -40.7930  -27.1550   18.0870 O   0  0  0  0  0  0  0  0  0  0  0  0
  -42.7380  -30.5250    4.1780 N   0  0  0  0  0  0  0  0  0  0  0  0
  -42.7720  -31.4510    5.3020 C   0  0  2  0  0  0  0  0  0  0  0  0
  -41.4930  -32.2940    5.4200 C   0  0  0  0  0  0  0  0  0  0  0  0
  -41.4630  -33.2570    6.1880 O   0  0  0  0  0  0  0  0  0  0  0  0
  -44.0210  -32.3380    5.1930 C   0  0  0  0  0  0  0  0  0  0  0  0
  -45.3360  -31.5610    5.2940 C   0  0  0  0  0  0  0  0  0  0  0  0
  -45.9370  -30.9960    4.1660 C   0  0  0  0  0  0  0  0  0  0  0  0
  -45.9520  -31.3600    6.5220 C   0  0  0  0  0  0  0  0  0  0  0  0
  -47.1180  -30.2740    4.2680 C   0  0  0  0  0  0  0  0  0  0  0  0
  -47.1290  -30.6370    6.6330 C   0  0  0  0  0  0  0  0  0  0  0  0
  -47.7050  -30.0960    5.5080 C   0  0  0  0  0  0  0  0  0  0  0  0
  -48.8770  -29.3810    5.6400 O   0  0  0  0  0  0  0  0  0  0  0  0
  -39.2310  -33.7010   13.5250 N   0  0  0  0  0  0  0  0  0  0  0  0
  -38.7420  -33.7410   14.8910 C   0  0  2  0  0  0  0  0  0  0  0  0
  -39.3400  -34.9330   15.6120 C   0  0  0  0  0  0  0  0  0  0  0  0
  -40.4220  -35.4170   15.2610 O   0  0  0  0  0  0  0  0  0  0  0  0
  -39.0880  -32.4730   15.6620 C   0  0  0  0  0  0  0  0  0  0  0  0
  -40.5650  -32.1950   15.7840 C   0  0  0  0  0  0  0  0  0  0  0  0
  -41.2720  -31.6450   14.7220 C   0  0  0  0  0  0  0  0  0  0  0  0
  -41.2530  -32.4420   16.9730 C   0  0  0  0  0  0  0  0  0  0  0  0
  -42.6200  -31.3680   14.8210 C   0  0  0  0  0  0  0  0  0  0  0  0
  -42.6350  -32.1550   17.0890 C   0  0  0  0  0  0  0  0  0  0  0  0
  -43.2940  -31.6260   15.9990 C   0  0  0  0  0  0  0  0  0  0  0  0
  -44.6320  -31.3390   16.0600 O   0  0  0  0  0  0  0  0  0  0  0  0
  -43.6970  -34.2740   11.1480 N   0  0  0  0  0  0  0  0  0  0  0  0
  -43.2150  -33.2150   10.2760 C   0  0  2  0  0  0  0  0  0  0  0  0
  -43.5980  -31.8520   10.8190 C   0  0  0  0  0  0  0  0  0  0  0  0
  -44.6850  -31.6730   11.3590 O   0  0  0  0  0  0  0  0  0  0  0  0
  -43.7580  -33.3440    8.8570 C   0  0  0  0  0  0  0  0  0  0  0  0
  -43.4560  -34.6180    8.3440 O   0  0  0  0  0  0  0  0  0  0  0  0
  -42.6710  -30.9080   10.6980 N   0  0  0  0  0  0  0  0  0  0  0  0
  -43.0250  -29.5040   10.6450 C   0  0  2  0  0  0  0  0  0  0  0  0
  -43.7510  -29.2700    9.3300 C   0  0  0  0  0  0  0  0  0  0  0  0
  -43.4730  -29.9350    8.3280 O   0  0  0  0  0  0  0  0  0  0  0  0
  -41.7630  -28.6390   10.6760 C   0  0  0  0  0  0  0  0  0  0  0  0
  -40.9510  -28.6130   11.9700 C   0  0  0  0  0  0  0  0  0  0  0  0
  -41.3960  -27.9320   13.1050 C   0  0  0  0  0  0  0  0  0  0  0  0
  -39.7110  -29.2660   12.0420 C   0  0  0  0  0  0  0  0  0  0  0  0
  -40.6260  -27.9040   14.2610 C   0  0  0  0  0  0  0  0  0  0  0  0
  -38.9320  -29.2490   13.2150 C   0  0  0  0  0  0  0  0  0  0  0  0
  -39.4010  -28.5560   14.3090 C   0  0  0  0  0  0  0  0  0  0  0  0
  -38.6590  -28.5330   15.4630 O   0  0  0  0  0  0  0  0  0  0  0  0
  -44.6750  -28.3260    9.3240 N   0  0  0  0  0  0  0  0  0  0  0  0
  -45.2140  -27.8560    8.0680 C   0  0  0  0  0  0  0  0  0  0  0  0
  -44.7670  -26.4240    7.8840 C   0  0  0  0  0  0  0  0  0  0  0  0
  -45.2500  -25.5220    8.5890 O   0  0  0  0  0  0  0  0  0  0  0  0
  -43.8040  -26.1980    6.9810 N   0  0  0  0  0  0  0  0  0  0  0  0
  -43.2750  -24.8590    6.7520 C   0  0  2  0  0  0  0  0  0  0  0  0
  -43.8990  -24.3160    5.4800 C   0  0  0  0  0  0  0  0  0  0  0  0
  -43.6010  -24.8010    4.3820 O   0  0  0  0  0  0  0  0  0  0  0  0
  -41.7540  -24.8580    6.6520 C   0  0  0  0  0  0  0  0  0  0  0  0
  -41.0570  -25.2180    7.9290 C   0  0  0  0  0  0  0  0  0  0  0  0
  -41.3350  -24.5340    9.1050 C   0  0  0  0  0  0  0  0  0  0  0  0
  -40.0840  -26.2190    7.9430 C   0  0  0  0  0  0  0  0  0  0  0  0
  -40.6940  -24.8560   10.2920 C   0  0  0  0  0  0  0  0  0  0  0  0
  -39.4160  -26.5490    9.1280 C   0  0  0  0  0  0  0  0  0  0  0  0
  -39.7260  -25.8700   10.3060 C   0  0  0  0  0  0  0  0  0  0  0  0
  -44.7780  -23.3060    5.6340 N   0  0  0  0  0  0  0  0  0  0  0  0
  -45.3280  -22.5180    4.5450 C   0  0  2  0  0  0  0  0  0  0  0  0
  -44.8150  -21.0890    4.6500 C   0  0  0  0  0  0  0  0  0  0  0  0
  -44.6710  -20.5680    5.7620 O   0  0  0  0  0  0  0  0  0  0  0  0
  -46.8590  -22.4820    4.5870 C   0  0  0  0  0  0  0  0  0  0  0  0
  -47.5230  -23.7000    5.1780 C   0  0  0  0  0  0  0  0  0  0  0  0
  -49.0150  -23.6880    4.9110 C   0  0  0  0  0  0  0  0  0  0  0  0
  -49.8480  -23.6910    5.8400 O   0  0  0  0  0  0  0  0  0  0  0  0
  -49.3650  -23.6550    3.6300 N   0  0  0  0  0  0  0  0  0  0  0  0
  -46.1820  -18.2930    4.4590 N   0  0  0  0  0  0  0  0  0  0  0  0
  -47.1060  -17.3670    5.1090 C   0  0  2  0  0  0  0  0  0  0  0  0
  -47.1980  -17.5120    6.6330 C   0  0  0  0  0  0  0  0  0  0  0  0
  -47.7440  -16.6120    7.2910 O   0  0  0  0  0  0  0  0  0  0  0  0
  -48.5040  -17.5370    4.5060 C   0  0  2  0  0  0  0  0  0  0  0  0
  -48.9430  -18.8870    4.7230 O   0  0  0  0  0  0  0  0  0  0  0  0
  -48.4990  -17.2280    3.0290 C   0  0  0  0  0  0  0  0  0  0  0  0
  -46.7170  -18.6110    7.2140 N   0  0  0  0  0  0  0  0  0  0  0  0
  -46.7540  -18.7600    8.6650 C   0  0  2  0  0  0  0  0  0  0  0  0
  -46.0930  -17.5620    9.3560 C   0  0  0  0  0  0  0  0  0  0  0  0
  -45.2250  -16.8870    8.7930 O   0  0  0  0  0  0  0  0  0  0  0  0
  -46.0180  -20.0230    9.1020 C   0  0  0  0  0  0  0  0  0  0  0  0
  -46.6230  -21.2890    8.5490 C   0  0  0  0  0  0  0  0  0  0  0  0
  -47.7680  -21.3150    8.0870 O   0  0  0  0  0  0  0  0  0  0  0  0
  -45.8450  -22.3670    8.6070 N   0  0  0  0  0  0  0  0  0  0  0  0
  -46.5160  -17.2920   10.5970 N   0  0  0  0  0  0  0  0  0  0  0  0
  -45.8160  -16.3150   11.4130 C   0  0  0  0  0  0  0  0  0  0  0  0
  -44.4450  -16.8160   11.8280 C   0  0  0  0  0  0  0  0  0  0  0  0
  -44.1730  -18.0270   11.8310 O   0  0  0  0  0  0  0  0  0  0  0  0
  -43.5680  -15.8670   12.2010 N   0  0  0  0  0  0  0  0  0  0  0  0
  -42.1280  -16.1690   12.2910 C   0  0  2  0  0  0  0  0  0  0  0  0
  -41.8390  -17.2710   13.3040 C   0  0  0  0  0  0  0  0  0  0  0  0
  -40.8550  -18.0080   13.1620 O   0  0  0  0  0  0  0  0  0  0  0  0
  -41.2920  -14.9040   12.6040 C   0  0  0  0  0  0  0  0  0  0  0  0
  -41.6990  -13.7460   11.6910 C   0  0  0  0  0  0  0  0  0  0  0  0
  -41.3940  -14.5180   14.0860 C   0  0  0  0  0  0  0  0  0  0  0  0
  -43.4610  -19.9220   13.4780 N   0  0  0  0  0  0  0  0  0  0  0  0
  -43.7000  -21.1610   12.7500 C   0  0  2  0  0  0  0  0  0  0  0  0
  -42.7990  -21.3230   11.5270 C   0  0  0  0  0  0  0  0  0  0  0  0
  -42.9030  -22.3290   10.8110 O   0  0  0  0  0  0  0  0  0  0  0  0
  -45.1760  -21.2450   12.3540 C   0  0  0  0  0  0  0  0  0  0  0  0
  -46.0430  -21.3520   13.5720 C   0  0  0  0  0  0  0  0  0  0  0  0
  -46.4970  -20.2150   14.2330 C   0  0  0  0  0  0  0  0  0  0  0  0
  -46.3030  -22.5930   14.1330 C   0  0  0  0  0  0  0  0  0  0  0  0
  -47.2650  -20.3100   15.3670 C   0  0  0  0  0  0  0  0  0  0  0  0
  -47.0560  -22.7040   15.2670 C   0  0  0  0  0  0  0  0  0  0  0  0
  -47.5340  -21.5610   15.8800 C   0  0  0  0  0  0  0  0  0  0  0  0
  -48.2850  -21.6900   17.0080 O   0  0  0  0  0  0  0  0  0  0  0  0
  2  1  1  1
  3  2  1  0
  4  3  2  0
  5  2  1  0
  6  5  1  0
  7  6  1  0
  8  7  1  0
  9  8  1  0
 10  9  1  0
 11  9  2  0
 13 12  1  6
 14 13  1  0
 15 14  2  0
 16 13  1  0
 17 16  1  0
 18 17  1  0
 19 18  2  0
 20 18  1  0
 22 21  1  6
 23 22  1  0
 24 23  2  0
 25 22  1  0
 26 25  1  0
 27 26  2  0
 28 26  1  0
 29 27  1  0
 30 28  2  0
 31 29  2  0
 31 30  1  0
 32 31  1  0
 34 33  1  6
 35 34  1  0
 36 35  2  0
 37 34  1  0
 38 37  1  0
 39 38  2  0
 40 38  1  0
 41 39  1  0
 42 40  2  0
 43 41  2  0
 43 42  1  0
 44 43  1  0
 46 45  1  1
 47 46  1  0
 48 47  2  0
 49 46  1  0
 50 49  1  0
 51 47  1  0
 52 51  1  0
 53 52  1  0
 54 53  2  0
 52 55  1  6
 56 55  1  0
 57 56  2  0
 58 56  1  0
 59 57  1  0
 60 58  2  0
 61 60  1  0
 61 59  2  0
 62 61  1  0
 63 53  1  0
 64 63  1  0
 65 64  1  0
 66 65  2  0
 67 65  1  0
 68 67  1  0
 69 68  1  0
 70 69  2  0
 68 71  1  6
 72 71  1  0
 73 72  2  0
 74 72  1  0
 75 73  1  0
 76 74  2  0
 77 76  1  0
 77 75  2  0
 78 69  1  0
 79 78  1  0
 80 79  1  0
 81 80  2  0
 79 82  1  1
 83 82  1  0
 84 83  1  0
 85 84  2  0
 86 84  1  0
 88 87  1  6
 89 88  1  0
 90 89  2  0
 91 88  1  0
 92 91  1  0
 91 93  1  6
 94 89  1  0
 95 94  1  0
 96 95  1  0
 97 96  2  0
 95 98  1  6
 99 98  1  0
100 99  2  0
101 99  1  0
102 96  1  0
103102  1  0
104103  1  0
105104  2  0
106104  1  0
107106  1  1
108107  1  0
109108  2  0
110107  1  0
111110  1  0
112110  1  0
114113  1  6
115114  1  0
116115  2  0
117114  1  0
118117  1  0
119118  2  0
120118  1  0
121119  1  0
122120  2  0
123122  1  0
123121  2  0
124123  1  0
M  END
$$$$
