
     RDKit          3D

127125  0  0  0  0  0  0  0  0999 V2000
  156.0260  129.2650  179.3100 N   0  0  0  0  0  0  0  0  0  0  0  0
  156.1790  128.1600  178.3780 C   0  0  2  0  0  0  0  0  0  0  0  0
  155.1690  127.1060  178.8100 C   0  0  0  0  0  0  0  0  0  0  0  0
  155.5290  126.1030  179.4340 O   0  0  0  0  0  0  0  0  0  0  0  0
  157.6020  127.6280  178.3880 C   0  0  0  0  0  0  0  0  0  0  0  0
  157.9150  126.8460  177.1620 C   0  0  0  0  0  0  0  0  0  0  0  0
  157.0150  126.4870  176.4320 O   0  0  0  0  0  0  0  0  0  0  0  0
  159.1930  126.6450  176.8800 N   0  0  0  0  0  0  0  0  0  0  0  0
  153.9150  127.3030  178.4080 N   0  0  0  0  0  0  0  0  0  0  0  0
  152.8260  126.4670  178.8810 C   0  0  2  0  0  0  0  0  0  0  0  0
  153.0800  125.0090  178.5910 C   0  0  0  0  0  0  0  0  0  0  0  0
  152.5100  124.1330  179.2400 O   0  0  0  0  0  0  0  0  0  0  0  0
  151.5120  126.8720  178.2300 C   0  0  0  0  0  0  0  0  0  0  0  0
  150.6950  127.9780  178.8860 C   0  0  0  0  0  0  0  0  0  0  0  0
  151.3130  129.2920  178.6070 C   0  0  0  0  0  0  0  0  0  0  0  0
  149.3000  127.9660  178.3590 C   0  0  0  0  0  0  0  0  0  0  0  0
  153.9180  124.7520  177.5810 N   0  0  0  0  0  0  0  0  0  0  0  0
  154.2040  123.3570  177.1540 C   0  0  2  0  0  0  0  0  0  0  0  0
  154.8620  122.5730  178.2910 C   0  0  0  0  0  0  0  0  0  0  0  0
  154.7220  121.3430  178.2950 O   0  0  0  0  0  0  0  0  0  0  0  0
  155.1260  123.3420  175.9290 C   0  0  2  0  0  0  0  0  0  0  0  0
  156.4600  123.5860  176.3770 O   0  0  0  0  0  0  0  0  0  0  0  0
  154.7370  124.3690  174.8880 C   0  0  0  0  0  0  0  0  0  0  0  0
  155.5640  123.2510  179.2030 N   0  0  0  0  0  0  0  0  0  0  0  0
  156.3010  122.5120  180.2630 C   0  0  2  0  0  0  0  0  0  0  0  0
  155.3070  121.7360  181.1320 C   0  0  0  0  0  0  0  0  0  0  0  0
  155.5790  120.5540  181.4150 O   0  0  0  0  0  0  0  0  0  0  0  0
  157.1450  123.4780  181.1000 C   0  0  0  0  0  0  0  0  0  0  0  0
  158.2540  124.1890  180.3370 C   0  0  0  0  0  0  0  0  0  0  0  0
  159.2260  123.2350  179.6780 C   0  0  0  0  0  0  0  0  0  0  0  0
  160.2730  123.9390  178.8430 C   0  0  0  0  0  0  0  0  0  0  0  0
  161.0070  124.9580  179.6300 N   0  0  0  0  0  0  0  0  0  0  0  0
  152.1810  120.8890  180.1660 N   0  0  0  0  0  0  0  0  0  0  0  0
  151.4560  119.9040  179.3160 C   0  0  2  0  0  0  0  0  0  0  0  0
  152.3350  118.6840  179.0100 C   0  0  0  0  0  0  0  0  0  0  0  0
  151.7910  117.5720  179.0400 O   0  0  0  0  0  0  0  0  0  0  0  0
  150.9310  120.5900  178.0500 C   0  0  0  0  0  0  0  0  0  0  0  0
  149.5720  121.2720  178.2130 C   0  0  0  0  0  0  0  0  0  0  0  0
  149.7260  122.7420  178.5650 C   0  0  0  0  0  0  0  0  0  0  0  0
  148.7260  121.1190  176.9620 C   0  0  0  0  0  0  0  0  0  0  0  0
  153.6410  118.8890  178.7380 N   0  0  0  0  0  0  0  0  0  0  0  0
  154.5400  117.7580  178.3860 C   0  0  2  0  0  0  0  0  0  0  0  0
  154.6000  116.7990  179.5760 C   0  0  0  0  0  0  0  0  0  0  0  0
  154.6090  115.5730  179.3490 O   0  0  0  0  0  0  0  0  0  0  0  0
  155.9110  118.2470  178.0020 C   0  0  0  0  0  0  0  0  0  0  0  0
  156.5040  118.9750  179.0660 O   0  0  0  0  0  0  0  0  0  0  0  0
  154.6290  117.3460  180.7930 N   0  0  0  0  0  0  0  0  0  0  0  0
  154.6440  116.5050  182.0180 C   0  0  2  0  0  0  0  0  0  0  0  0
  153.3530  115.6850  182.0950 C   0  0  0  0  0  0  0  0  0  0  0  0
  153.4440  114.5180  182.5000 O   0  0  0  0  0  0  0  0  0  0  0  0
  154.7830  117.4190  183.2400 C   0  0  0  0  0  0  0  0  0  0  0  0
  156.1730  117.4870  183.8710 C   0  0  0  0  0  0  0  0  0  0  0  0
  157.2380  117.8080  182.8330 C   0  0  0  0  0  0  0  0  0  0  0  0
  156.2040  118.5070  184.9990 C   0  0  0  0  0  0  0  0  0  0  0  0
  152.2410  116.1700  181.6990 N   0  0  0  0  0  0  0  0  0  0  0  0
  150.9540  115.4330  181.7920 C   0  0  2  0  0  0  0  0  0  0  0  0
  150.6530  114.7340  180.4640 C   0  0  0  0  0  0  0  0  0  0  0  0
  151.4560  114.8630  179.5230 O   0  0  0  0  0  0  0  0  0  0  0  0
  149.8300  116.4200  182.1170 C   0  0  0  0  0  0  0  0  0  0  0  0
  149.6680  116.7520  183.5790 C   0  0  0  0  0  0  0  0  0  0  0  0
  150.7710  116.9570  184.3920 C   0  0  0  0  0  0  0  0  0  0  0  0
  148.4080  116.8730  184.1410 C   0  0  0  0  0  0  0  0  0  0  0  0
  150.6180  117.2630  185.7350 C   0  0  0  0  0  0  0  0  0  0  0  0
  148.2550  117.1780  185.4840 C   0  0  0  0  0  0  0  0  0  0  0  0
  149.3600  117.3740  186.2780 C   0  0  0  0  0  0  0  0  0  0  0  0
  149.5520  113.9760  180.4050 N   0  0  0  0  0  0  0  0  0  0  0  0
  149.1040  113.3510  179.1310 C   0  0  2  0  0  0  0  0  0  0  0  0
  147.7430  113.9720  178.8120 C   0  0  0  0  0  0  0  0  0  0  0  0
  146.7510  113.5680  179.4500 O   0  0  0  0  0  0  0  0  0  0  0  0
  149.0390  111.8490  179.2340 C   0  0  0  0  0  0  0  0  0  0  0  0
  148.2500  111.4440  180.3410 O   0  0  0  0  0  0  0  0  0  0  0  0
  147.6920  114.9120  177.8660 N   0  0  0  0  0  0  0  0  0  0  0  0
  146.4290  115.6740  177.6300 C   0  0  2  0  0  0  0  0  0  0  0  0
  145.4560  114.8470  176.7880 C   0  0  0  0  0  0  0  0  0  0  0  0
  145.9130  114.1120  175.8880 O   0  0  0  0  0  0  0  0  0  0  0  0
  146.7060  117.0670  177.0330 C   0  0  0  0  0  0  0  0  0  0  0  0
  147.7830  117.7820  177.8310 C   0  0  0  0  0  0  0  0  0  0  0  0
  147.0860  117.0080  175.5620 C   0  0  0  0  0  0  0  0  0  0  0  0
  141.3620  119.3530  174.6330 N   0  0  0  0  0  0  0  0  0  0  0  0
  141.8100  120.7700  174.6140 C   0  0  2  0  0  0  0  0  0  0  0  0
  140.8400  121.5860  173.7550 C   0  0  0  0  0  0  0  0  0  0  0  0
  141.0210  121.6270  172.5210 O   0  0  0  0  0  0  0  0  0  0  0  0
  143.2420  120.8960  174.0930 C   0  0  0  0  0  0  0  0  0  0  0  0
  143.8360  122.2660  174.2970 C   0  0  0  0  0  0  0  0  0  0  0  0
  143.6180  122.9630  175.4750 C   0  0  0  0  0  0  0  0  0  0  0  0
  144.5950  122.8660  173.3080 C   0  0  0  0  0  0  0  0  0  0  0  0
  144.1560  124.2250  175.6620 C   0  0  0  0  0  0  0  0  0  0  0  0
  145.1320  124.1280  173.4970 C   0  0  0  0  0  0  0  0  0  0  0  0
  144.9180  124.8030  174.6750 C   0  0  0  0  0  0  0  0  0  0  0  0
  143.4350  126.6450  168.8960 N   0  0  0  0  0  0  0  0  0  0  0  0
  144.1500  125.8900  169.9360 C   0  0  2  0  0  0  0  0  0  0  0  0
  145.4630  126.5510  170.3860 C   0  0  0  0  0  0  0  0  0  0  0  0
  145.6270  126.7410  171.5770 O   0  0  0  0  0  0  0  0  0  0  0  0
  144.4420  124.5490  169.2520 C   0  0  0  0  0  0  0  0  0  0  0  0
  143.2200  124.3250  168.4010 C   0  0  0  0  0  0  0  0  0  0  0  0
  142.8500  125.7090  167.9070 C   0  0  0  0  0  0  0  0  0  0  0  0
  146.3630  126.8660  169.4470 N   0  0  0  0  0  0  0  0  0  0  0  0
  147.6830  127.4310  169.8230 C   0  0  2  0  0  0  0  0  0  0  0  0
  147.6780  128.9600  169.8030 C   0  0  0  0  0  0  0  0  0  0  0  0
  148.7170  129.5350  170.1570 O   0  0  0  0  0  0  0  0  0  0  0  0
  148.7640  126.9190  168.9110 C   0  0  0  0  0  0  0  0  0  0  0  0
  146.3540  131.1020  171.7210 N   0  0  0  0  0  0  0  0  0  0  0  0
  146.5960  131.6250  173.0970 C   0  0  2  0  0  0  0  0  0  0  0  0
  148.0880  131.5070  173.4340 C   0  0  0  0  0  0  0  0  0  0  0  0
  148.6220  132.4580  174.0270 O   0  0  0  0  0  0  0  0  0  0  0  0
  145.7030  130.8960  174.1210 C   0  0  2  0  0  0  0  0  0  0  0  0
  145.5280  129.4160  173.7710 C   0  0  0  0  0  0  0  0  0  0  0  0
  144.3610  131.5980  174.2500 C   0  0  0  0  0  0  0  0  0  0  0  0
  146.2120  128.4700  174.7310 C   0  0  0  0  0  0  0  0  0  0  0  0
  148.7340  130.4100  173.0290 N   0  0  0  0  0  0  0  0  0  0  0  0
  150.1730  130.2080  173.3220 C   0  0  2  0  0  0  0  0  0  0  0  0
  151.0250  131.0630  172.3770 C   0  0  0  0  0  0  0  0  0  0  0  0
  152.0140  131.6540  172.8530 O   0  0  0  0  0  0  0  0  0  0  0  0
  150.5180  128.7450  173.2040 C   0  0  0  0  0  0  0  0  0  0  0  0
  150.6530  131.1280  171.0940 N   0  0  0  0  0  0  0  0  0  0  0  0
  151.4610  131.8770  170.0900 C   0  0  2  0  0  0  0  0  0  0  0  0
  151.4030  133.3880  170.3260 C   0  0  0  0  0  0  0  0  0  0  0  0
  152.4690  134.0340  170.2810 O   0  0  0  0  0  0  0  0  0  0  0  0
  151.0210  131.5340  168.6900 C   0  0  0  0  0  0  0  0  0  0  0  0
  151.0810  130.1330  168.4710 O   0  0  0  0  0  0  0  0  0  0  0  0
  155.1580  134.0100  175.4740 N   0  0  0  0  0  0  0  0  0  0  0  0
  155.9580  132.7830  175.3980 C   0  0  2  0  0  0  0  0  0  0  0  0
  157.4520  133.1300  175.3170 C   0  0  0  0  0  0  0  0  0  0  0  0
  157.7880  134.1450  174.7300 O   0  0  0  0  0  0  0  0  0  0  0  0
  155.4920  132.1150  174.0970 C   0  0  0  0  0  0  0  0  0  0  0  0
  154.9390  133.2550  173.2700 C   0  0  0  0  0  0  0  0  0  0  0  0
  154.3270  134.2010  174.2820 C   0  0  0  0  0  0  0  0  0  0  0  0
  2  1  1  1
  3  2  1  0
  4  3  2  0
  5  2  1  0
  6  5  1  0
  7  6  2  0
  8  6  1  0
  9  3  1  0
 10  9  1  0
 11 10  1  0
 12 11  2  0
 10 13  1  6
 14 13  1  0
 15 14  1  0
 16 14  1  0
 17 11  1  0
 18 17  1  1
 19 18  1  0
 20 19  2  0
 21 18  1  0
 22 21  1  0
 21 23  1  6
 24 19  1  0
 25 24  1  0
 26 25  1  0
 27 26  2  0
 25 28  1  1
 29 28  1  0
 30 29  1  0
 31 30  1  0
 32 31  1  0
 34 33  1  6
 35 34  1  0
 36 35  2  0
 37 34  1  0
 38 37  1  0
 39 38  1  0
 40 38  1  0
 41 35  1  0
 42 41  1  0
 43 42  1  0
 44 43  2  0
 42 45  1  1
 46 45  1  0
 47 43  1  0
 48 47  1  0
 49 48  1  0
 50 49  2  0
 48 51  1  1
 52 51  1  0
 53 52  1  0
 54 52  1  0
 55 49  1  0
 56 55  1  0
 57 56  1  0
 58 57  2  0
 56 59  1  6
 60 59  1  0
 61 60  2  0
 62 60  1  0
 63 61  1  0
 64 62  2  0
 65 64  1  0
 65 63  2  0
 66 57  1  0
 67 66  1  0
 68 67  1  0
 69 68  2  0
 67 70  1  1
 71 70  1  0
 72 68  1  0
 73 72  1  6
 74 73  1  0
 75 74  2  0
 76 73  1  0
 77 76  1  0
 78 76  1  0
 80 79  1  6
 81 80  1  0
 82 81  2  0
 83 80  1  0
 84 83  1  0
 85 84  2  0
 86 84  1  0
 87 85  1  0
 88 86  2  0
 89 88  1  0
 89 87  2  0
 91 90  1  0
 91 92  1  6
 93 92  2  0
 94 91  1  0
 95 94  1  0
 96 95  1  0
 96 90  1  0
 97 92  1  0
 98 97  1  0
 99 98  1  0
100 99  2  0
 98101  1  6
103102  1  6
104103  1  0
105104  2  0
106103  1  0
107106  1  0
106108  1  6
109107  1  0
110104  1  0
111110  1  0
112111  1  0
113112  2  0
111114  1  6
115112  1  0
116115  1  0
117116  1  0
118117  2  0
116119  1  6
120119  1  0
122121  1  0
122123  1  6
124123  2  0
125122  1  0
126125  1  0
127126  1  0
127121  1  0
M  END
$$$$
