
     RDKit          3D

121121  0  0  0  0  0  0  0  0999 V2000
  -41.6940   -8.4550  -18.0360 N   0  0  0  0  0  0  0  0  0  0  0  0
  -41.3420   -8.8060  -16.6730 C   0  0  0  0  0  0  0  0  0  0  0  0
  -42.1570   -9.9350  -16.0740 C   0  0  0  0  0  0  0  0  0  0  0  0
  -43.3750  -10.0070  -16.2640 O   0  0  0  0  0  0  0  0  0  0  0  0
  -43.2830  -11.3970  -12.5520 N   0  0  0  0  0  0  0  0  0  0  0  0
  -43.3980  -11.0410  -11.1450 C   0  0  2  0  0  0  0  0  0  0  0  0
  -43.9740  -12.1880  -10.3210 C   0  0  0  0  0  0  0  0  0  0  0  0
  -44.6090  -11.9670   -9.2870 O   0  0  0  0  0  0  0  0  0  0  0  0
  -44.2390   -9.7740  -10.9930 C   0  0  0  0  0  0  0  0  0  0  0  0
  -43.8110   -8.6660  -11.9370 C   0  0  0  0  0  0  0  0  0  0  0  0
  -42.7370   -7.8430  -11.6280 C   0  0  0  0  0  0  0  0  0  0  0  0
  -44.4730   -8.4560  -13.1430 C   0  0  0  0  0  0  0  0  0  0  0  0
  -42.3330   -6.8390  -12.4950 C   0  0  0  0  0  0  0  0  0  0  0  0
  -44.0800   -7.4530  -14.0130 C   0  0  0  0  0  0  0  0  0  0  0  0
  -43.0100   -6.6450  -13.6850 C   0  0  0  0  0  0  0  0  0  0  0  0
  -42.6140   -5.6410  -14.5490 O   0  0  0  0  0  0  0  0  0  0  0  0
  -39.2630  -12.4290   -3.1350 N   0  0  0  0  0  0  0  0  0  0  0  0
  -38.3390  -12.6290   -2.0280 C   0  0  2  0  0  0  0  0  0  0  0  0
  -38.7410  -11.7380   -0.8660 C   0  0  0  0  0  0  0  0  0  0  0  0
  -39.5280  -10.7960   -1.0100 O   0  0  0  0  0  0  0  0  0  0  0  0
  -36.8820  -12.3480   -2.4120 C   0  0  0  0  0  0  0  0  0  0  0  0
  -36.6060  -10.9360   -2.8720 C   0  0  0  0  0  0  0  0  0  0  0  0
  -36.8060  -10.5680   -4.1930 C   0  0  0  0  0  0  0  0  0  0  0  0
  -36.1400   -9.9680   -1.9880 C   0  0  0  0  0  0  0  0  0  0  0  0
  -36.5430   -9.2800   -4.6300 C   0  0  0  0  0  0  0  0  0  0  0  0
  -35.8840   -8.6690   -2.4140 C   0  0  0  0  0  0  0  0  0  0  0  0
  -36.0850   -8.3330   -3.7370 C   0  0  0  0  0  0  0  0  0  0  0  0
  -35.8290   -7.0490   -4.1700 O   0  0  0  0  0  0  0  0  0  0  0  0
  -41.4210   -8.9750   -1.9760 N   0  0  0  0  0  0  0  0  0  0  0  0
  -41.0960   -8.1730   -3.1460 C   0  0  2  0  0  0  0  0  0  0  0  0
  -40.9050   -9.0800   -4.3530 C   0  0  0  0  0  0  0  0  0  0  0  0
  -40.2660  -10.1310   -4.2540 O   0  0  0  0  0  0  0  0  0  0  0  0
  -39.8350   -7.3320   -2.9120 C   0  0  0  0  0  0  0  0  0  0  0  0
  -39.3550   -6.5910   -4.1460 C   0  0  0  0  0  0  0  0  0  0  0  0
  -40.3590   -5.5620   -4.6220 C   0  0  0  0  0  0  0  0  0  0  0  0
  -41.1390   -5.0260   -3.8350 O   0  0  0  0  0  0  0  0  0  0  0  0
  -40.3540   -5.2900   -5.9210 N   0  0  0  0  0  0  0  0  0  0  0  0
  -41.4590   -8.6590   -5.4880 N   0  0  0  0  0  0  0  0  0  0  0  0
  -41.3320   -9.3980   -6.7330 C   0  0  2  0  0  0  0  0  0  0  0  0
  -39.9900   -9.1170   -7.4030 C   0  0  0  0  0  0  0  0  0  0  0  0
  -39.4560   -8.0090   -7.3520 O   0  0  0  0  0  0  0  0  0  0  0  0
  -42.4700   -9.0370   -7.6880 C   0  0  0  0  0  0  0  0  0  0  0  0
  -43.7270   -9.4300   -7.1640 O   0  0  0  0  0  0  0  0  0  0  0  0
  -39.4540  -10.1560   -8.0360 N   0  0  0  0  0  0  0  0  0  0  0  0
  -38.2280  -10.1180   -8.8340 C   0  0  2  0  0  0  0  0  0  0  0  0
  -38.3530   -9.3550  -10.1460 C   0  0  0  0  0  0  0  0  0  0  0  0
  -37.4480   -8.5870  -10.4920 O   0  0  0  0  0  0  0  0  0  0  0  0
  -37.7550  -11.5560   -9.0510 C   0  0  0  0  0  0  0  0  0  0  0  0
  -36.7450  -12.0050   -8.0230 C   0  0  0  0  0  0  0  0  0  0  0  0
  -35.8190  -11.0920   -7.5320 C   0  0  0  0  0  0  0  0  0  0  0  0
  -36.8190  -13.2530   -7.4130 C   0  0  0  0  0  0  0  0  0  0  0  0
  -34.8770  -11.4520   -6.6000 C   0  0  0  0  0  0  0  0  0  0  0  0
  -35.8960  -13.6190   -6.4270 C   0  0  0  0  0  0  0  0  0  0  0  0
  -34.9290  -12.7050   -6.0260 C   0  0  0  0  0  0  0  0  0  0  0  0
  -34.0030  -13.0320   -5.0600 O   0  0  0  0  0  0  0  0  0  0  0  0
  -39.4370   -9.5330  -10.8930 N   0  0  0  0  0  0  0  0  0  0  0  0
  -39.5230   -8.8280  -12.1630 C   0  0  0  0  0  0  0  0  0  0  0  0
  -38.4320   -9.2590  -13.1220 C   0  0  0  0  0  0  0  0  0  0  0  0
  -37.6400   -8.4400  -13.6010 O   0  0  0  0  0  0  0  0  0  0  0  0
  -38.3850  -10.5590  -13.3910 N   0  0  0  0  0  0  0  0  0  0  0  0
  -37.3930  -11.1390  -14.2860 C   0  0  2  0  0  0  0  0  0  0  0  0
  -37.8190  -10.8960  -15.7260 C   0  0  0  0  0  0  0  0  0  0  0  0
  -38.8480  -11.4080  -16.1800 O   0  0  0  0  0  0  0  0  0  0  0  0
  -37.2240  -12.6260  -14.0020 C   0  0  0  0  0  0  0  0  0  0  0  0
  -36.4370  -12.9070  -12.7640 C   0  0  0  0  0  0  0  0  0  0  0  0
  -35.2320  -12.2620  -12.5450 C   0  0  0  0  0  0  0  0  0  0  0  0
  -36.8980  -13.8080  -11.8180 C   0  0  0  0  0  0  0  0  0  0  0  0
  -34.4970  -12.5100  -11.4100 C   0  0  0  0  0  0  0  0  0  0  0  0
  -36.1610  -14.0690  -10.6770 C   0  0  0  0  0  0  0  0  0  0  0  0
  -34.9580  -13.4130  -10.4710 C   0  0  0  0  0  0  0  0  0  0  0  0
  -37.0270  -10.1040  -16.4360 N   0  0  0  0  0  0  0  0  0  0  0  0
  -37.2030   -9.7890  -17.8300 C   0  0  2  0  0  0  0  0  0  0  0  0
  -36.0040  -10.3100  -18.6090 C   0  0  0  0  0  0  0  0  0  0  0  0
  -34.8800  -10.2880  -18.0940 O   0  0  0  0  0  0  0  0  0  0  0  0
  -37.3360   -8.2740  -18.0220 C   0  0  0  0  0  0  0  0  0  0  0  0
  -38.0880   -7.8600  -19.2610 C   0  0  0  0  0  0  0  0  0  0  0  0
  -38.3850   -6.3820  -19.2700 C   0  0  0  0  0  0  0  0  0  0  0  0
  -38.8470   -5.8380  -20.2700 O   0  0  0  0  0  0  0  0  0  0  0  0
  -38.1150   -5.7160  -18.1500 N   0  0  0  0  0  0  0  0  0  0  0  0
  -34.3920   -8.9890  -20.9380 N   0  0  0  0  0  0  0  0  0  0  0  0
  -33.4390   -7.9280  -21.2410 C   0  0  2  0  0  0  0  0  0  0  0  0
  -32.4890   -7.6410  -20.0840 C   0  0  0  0  0  0  0  0  0  0  0  0
  -31.4630   -6.9870  -20.2980 O   0  0  0  0  0  0  0  0  0  0  0  0
  -34.1830   -6.6430  -21.6080 C   0  0  2  0  0  0  0  0  0  0  0  0
  -34.7570   -6.0700  -20.4240 O   0  0  0  0  0  0  0  0  0  0  0  0
  -35.2980   -6.9490  -22.5940 C   0  0  0  0  0  0  0  0  0  0  0  0
  -32.8070   -8.1140  -18.8760 N   0  0  0  0  0  0  0  0  0  0  0  0
  -32.0350   -7.7670  -17.6890 C   0  0  2  0  0  0  0  0  0  0  0  0
  -30.5610   -8.1070  -17.8700 C   0  0  0  0  0  0  0  0  0  0  0  0
  -30.1990   -9.0420  -18.5900 O   0  0  0  0  0  0  0  0  0  0  0  0
  -32.5840   -8.5020  -16.4610 C   0  0  0  0  0  0  0  0  0  0  0  0
  -33.8710   -7.8930  -15.9400 C   0  0  0  0  0  0  0  0  0  0  0  0
  -34.3720   -6.9080  -16.4840 O   0  0  0  0  0  0  0  0  0  0  0  0
  -34.4160   -8.4790  -14.8770 N   0  0  0  0  0  0  0  0  0  0  0  0
  -29.7090   -7.3210  -17.2150 N   0  0  0  0  0  0  0  0  0  0  0  0
  -28.3060   -7.6660  -17.1290 C   0  0  0  0  0  0  0  0  0  0  0  0
  -28.0990   -9.0030  -16.4470 C   0  0  0  0  0  0  0  0  0  0  0  0
  -28.9740   -9.5220  -15.7540 O   0  0  0  0  0  0  0  0  0  0  0  0
  -26.9000   -9.5560  -16.6340 N   0  0  0  0  0  0  0  0  0  0  0  0
  -26.7070  -10.9690  -16.3320 C   0  0  2  0  0  0  0  0  0  0  0  0
  -26.8370  -11.2210  -14.8330 C   0  0  0  0  0  0  0  0  0  0  0  0
  -27.2630  -12.3030  -14.4090 O   0  0  0  0  0  0  0  0  0  0  0  0
  -25.3460  -11.4450  -16.8670 C   0  0  0  0  0  0  0  0  0  0  0  0
  -25.2160  -12.9470  -16.6710 C   0  0  0  0  0  0  0  0  0  0  0  0
  -25.1300  -10.9970  -18.3120 C   0  0  0  0  0  0  0  0  0  0  0  0
  -26.4760  -10.2380  -14.0050 N   0  0  0  0  0  0  0  0  0  0  0  0
  -26.6710  -10.3620  -12.5730 C   0  0  0  0  0  0  0  0  0  0  0  0
  -28.1080  -10.2240  -12.1240 C   0  0  0  0  0  0  0  0  0  0  0  0
  -28.4370  -10.6340  -11.0070 O   0  0  0  0  0  0  0  0  0  0  0  0
  -28.9750   -9.6600  -12.9640 N   0  0  0  0  0  0  0  0  0  0  0  0
  -30.3860   -9.4990  -12.6430 C   0  0  2  0  0  0  0  0  0  0  0  0
  -31.2590  -10.5140  -13.3630 C   0  0  0  0  0  0  0  0  0  0  0  0
  -32.4790  -10.3360  -13.4250 O   0  0  0  0  0  0  0  0  0  0  0  0
  -30.8520   -8.0810  -12.9740 C   0  0  0  0  0  0  0  0  0  0  0  0
  -30.0360   -7.0040  -12.3060 C   0  0  0  0  0  0  0  0  0  0  0  0
  -28.7790   -6.6730  -12.7780 C   0  0  0  0  0  0  0  0  0  0  0  0
  -30.5260   -6.3120  -11.2080 C   0  0  0  0  0  0  0  0  0  0  0  0
  -28.0280   -5.7010  -12.1740 C   0  0  0  0  0  0  0  0  0  0  0  0
  -29.7770   -5.3270  -10.6030 C   0  0  0  0  0  0  0  0  0  0  0  0
  -28.5260   -5.0240  -11.0880 C   0  0  0  0  0  0  0  0  0  0  0  0
  -27.7640   -4.0430  -10.4900 O   0  0  0  0  0  0  0  0  0  0  0  0
  2  1  1  0
  3  2  1  0
  4  3  2  0
  6  5  1  6
  7  6  1  0
  8  7  2  0
  9  6  1  0
 10  9  1  0
 11 10  2  0
 12 10  1  0
 13 11  1  0
 14 12  2  0
 15 14  1  0
 15 13  2  0
 16 15  1  0
 18 17  1  6
 19 18  1  0
 20 19  2  0
 21 18  1  0
 22 21  1  0
 23 22  2  0
 24 22  1  0
 25 23  1  0
 26 24  2  0
 27 26  1  0
 27 25  2  0
 28 27  1  0
 30 29  1  1
 31 30  1  0
 32 31  2  0
 33 30  1  0
 34 33  1  0
 35 34  1  0
 36 35  2  0
 37 35  1  0
 38 31  1  0
 39 38  1  0
 40 39  1  0
 41 40  2  0
 39 42  1  6
 43 42  1  0
 44 40  1  0
 45 44  1  0
 46 45  1  0
 47 46  2  0
 45 48  1  6
 49 48  1  0
 50 49  2  0
 51 49  1  0
 52 50  1  0
 53 51  2  0
 54 53  1  0
 54 52  2  0
 55 54  1  0
 56 46  1  0
 57 56  1  0
 58 57  1  0
 59 58  2  0
 60 58  1  0
 61 60  1  0
 62 61  1  0
 63 62  2  0
 61 64  1  1
 65 64  1  0
 66 65  2  0
 67 65  1  0
 68 66  1  0
 69 67  2  0
 70 68  2  0
 70 69  1  0
 71 62  1  0
 72 71  1  0
 73 72  1  0
 74 73  2  0
 72 75  1  1
 76 75  1  0
 77 76  1  0
 78 77  2  0
 79 77  1  0
 81 80  1  1
 82 81  1  0
 83 82  2  0
 84 81  1  0
 85 84  1  0
 84 86  1  6
 87 82  1  0
 88 87  1  0
 89 88  1  0
 90 89  2  0
 88 91  1  1
 92 91  1  0
 93 92  2  0
 94 92  1  0
 95 89  1  0
 96 95  1  0
 97 96  1  0
 98 97  2  0
 99 97  1  0
100 99  1  1
101100  1  0
102101  2  0
103100  1  0
104103  1  0
105103  1  0
106101  1  0
107106  1  0
108107  1  0
109108  2  0
110108  1  0
111110  1  0
112111  1  0
113112  2  0
111114  1  6
115114  1  0
116115  2  0
117115  1  0
118116  1  0
119117  2  0
120118  2  0
120119  1  0
121120  1  0
M  END
$$$$
