
     RDKit          3D

145144  0  0  0  0  0  0  0  0999 V2000
  -29.5990   -9.7300    1.3140 N   0  0  0  0  0  0  0  0  0  0  0  0
  -31.0550   -9.7960    1.3740 C   0  0  2  0  0  0  0  0  0  0  0  0
  -31.5770  -11.2280    1.3040 C   0  0  0  0  0  0  0  0  0  0  0  0
  -32.6950  -11.4920    1.7590 O   0  0  0  0  0  0  0  0  0  0  0  0
  -31.6500   -8.9430    0.2610 C   0  0  0  0  0  0  0  0  0  0  0  0
  -31.4820   -7.4460    0.5070 C   0  0  0  0  0  0  0  0  0  0  0  0
  -32.0170   -6.5780   -0.6210 C   0  0  0  0  0  0  0  0  0  0  0  0
  -31.1850   -5.3100   -0.7330 C   0  0  0  0  0  0  0  0  0  0  0  0
  -32.0040   -4.0930   -0.9690 N   0  0  0  0  0  0  0  0  0  0  0  0
  -32.8080  -12.9920    5.0680 N   0  0  0  0  0  0  0  0  0  0  0  0
  -34.2580  -12.9550    5.1790 C   0  0  2  0  0  0  0  0  0  0  0  0
  -34.9920  -13.9700    4.3120 C   0  0  0  0  0  0  0  0  0  0  0  0
  -36.2260  -14.0340    4.3850 O   0  0  0  0  0  0  0  0  0  0  0  0
  -34.7840  -11.5490    4.8340 C   0  0  0  0  0  0  0  0  0  0  0  0
  -34.0110  -10.4480    5.5200 C   0  0  0  0  0  0  0  0  0  0  0  0
  -33.8490  -10.4450    6.9000 C   0  0  0  0  0  0  0  0  0  0  0  0
  -33.4200   -9.4270    4.7900 C   0  0  0  0  0  0  0  0  0  0  0  0
  -33.1320   -9.4520    7.5320 C   0  0  0  0  0  0  0  0  0  0  0  0
  -32.7000   -8.4240    5.4140 C   0  0  0  0  0  0  0  0  0  0  0  0
  -32.5580   -8.4440    6.7860 C   0  0  0  0  0  0  0  0  0  0  0  0
  -31.8430   -7.4530    7.4120 O   0  0  0  0  0  0  0  0  0  0  0  0
  -38.1780  -12.0440    0.3010 N   0  0  0  0  0  0  0  0  0  0  0  0
  -38.4970  -11.2920    1.5050 C   0  0  2  0  0  0  0  0  0  0  0  0
  -37.5910  -10.0760    1.6050 C   0  0  0  0  0  0  0  0  0  0  0  0
  -36.3850  -10.2050    1.8330 O   0  0  0  0  0  0  0  0  0  0  0  0
  -38.3900  -12.1600    2.7510 C   0  0  0  0  0  0  0  0  0  0  0  0
  -38.8280  -11.3650    3.9520 C   0  0  0  0  0  0  0  0  0  0  0  0
  -38.9510  -12.1890    5.2040 C   0  0  0  0  0  0  0  0  0  0  0  0
  -39.9970  -13.1660    4.9790 N   0  0  0  0  0  0  0  0  0  0  0  0
  -41.2950  -12.8780    5.0150 C   0  0  0  0  0  0  0  0  0  0  0  0
  -41.7020  -11.6230    5.2090 N   0  0  0  0  0  0  0  0  0  0  0  0
  -42.1920  -13.8440    4.7940 N   0  0  0  0  0  0  0  0  0  0  0  0
  -38.1850   -8.8950    1.4440 N   0  0  0  0  0  0  0  0  0  0  0  0
  -37.4640   -7.6340    1.5470 C   0  0  2  0  0  0  0  0  0  0  0  0
  -37.3810   -7.1270    2.9800 C   0  0  0  0  0  0  0  0  0  0  0  0
  -36.3230   -6.6550    3.4060 O   0  0  0  0  0  0  0  0  0  0  0  0
  -38.1270   -6.5760    0.6590 C   0  0  0  0  0  0  0  0  0  0  0  0
  -37.5290   -5.1680    0.7240 C   0  0  0  0  0  0  0  0  0  0  0  0
  -36.0290   -5.2090    0.4980 C   0  0  0  0  0  0  0  0  0  0  0  0
  -38.1900   -4.2340   -0.2770 C   0  0  0  0  0  0  0  0  0  0  0  0
  -38.4700   -7.2140    3.7360 N   0  0  0  0  0  0  0  0  0  0  0  0
  -38.5320   -6.6840    5.0910 C   0  0  2  0  0  0  0  0  0  0  0  0
  -38.6190   -7.8310    6.0880 C   0  0  0  0  0  0  0  0  0  0  0  0
  -39.5350   -8.6580    6.0150 O   0  0  0  0  0  0  0  0  0  0  0  0
  -39.7310   -5.7450    5.2550 C   0  0  0  0  0  0  0  0  0  0  0  0
  -39.6110   -4.4670    4.4700 C   0  0  0  0  0  0  0  0  0  0  0  0
  -38.8130   -3.4310    4.9270 C   0  0  0  0  0  0  0  0  0  0  0  0
  -40.2790   -4.3110    3.2690 C   0  0  0  0  0  0  0  0  0  0  0  0
  -38.6930   -2.2600    4.2040 C   0  0  0  0  0  0  0  0  0  0  0  0
  -40.1600   -3.1410    2.5440 C   0  0  0  0  0  0  0  0  0  0  0  0
  -39.3690   -2.1150    3.0110 C   0  0  0  0  0  0  0  0  0  0  0  0
  -37.6560   -7.8860    7.0050 N   0  0  0  0  0  0  0  0  0  0  0  0
  -37.7010   -8.8030    8.1370 C   0  0  2  0  0  0  0  0  0  0  0  0
  -36.8580   -8.2020    9.2460 C   0  0  0  0  0  0  0  0  0  0  0  0
  -35.7740   -7.6760    8.9760 O   0  0  0  0  0  0  0  0  0  0  0  0
  -37.1890  -10.1960    7.7670 C   0  0  0  0  0  0  0  0  0  0  0  0
  -37.4600  -11.2230    8.8400 C   0  0  0  0  0  0  0  0  0  0  0  0
  -37.0640  -12.6110    8.4080 C   0  0  0  0  0  0  0  0  0  0  0  0
  -37.7880  -13.6200    9.1730 N   0  0  0  0  0  0  0  0  0  0  0  0
  -37.3730  -14.1230   10.3310 C   0  0  0  0  0  0  0  0  0  0  0  0
  -36.2260  -13.7170   10.8650 N   0  0  0  0  0  0  0  0  0  0  0  0
  -38.1050  -15.0370   10.9510 N   0  0  0  0  0  0  0  0  0  0  0  0
  -37.3470   -8.2690   10.4850 N   0  0  0  0  0  0  0  0  0  0  0  0
  -36.6770   -7.5210   11.5410 C   0  0  2  0  0  0  0  0  0  0  0  0
  -35.3560   -8.1690   11.9530 C   0  0  0  0  0  0  0  0  0  0  0  0
  -34.4020   -7.4600   12.2900 O   0  0  0  0  0  0  0  0  0  0  0  0
  -37.6060   -7.3310   12.7420 C   0  0  0  0  0  0  0  0  0  0  0  0
  -38.3290   -5.9820   12.6990 C   0  0  0  0  0  0  0  0  0  0  0  0
  -39.4440   -5.8440   13.7220 C   0  0  0  0  0  0  0  0  0  0  0  0
  -40.7080   -6.6040   13.3120 C   0  0  0  0  0  0  0  0  0  0  0  0
  -41.6210   -6.8850   14.4650 N   0  0  0  0  0  0  0  0  0  0  0  0
  -45.3450   -5.5650    7.5840 N   0  0  0  0  0  0  0  0  0  0  0  0
  -44.1620   -5.1390    8.3210 C   0  0  2  0  0  0  0  0  0  0  0  0
  -44.3320   -3.6920    8.7800 C   0  0  0  0  0  0  0  0  0  0  0  0
  -44.5940   -2.8020    7.9630 O   0  0  0  0  0  0  0  0  0  0  0  0
  -42.9530   -5.2940    7.4010 C   0  0  0  0  0  0  0  0  0  0  0  0
  -41.6100   -5.1690    8.0450 C   0  0  0  0  0  0  0  0  0  0  0  0
  -40.9960   -6.2700    8.6160 C   0  0  0  0  0  0  0  0  0  0  0  0
  -40.9320   -3.9630    8.0400 C   0  0  0  0  0  0  0  0  0  0  0  0
  -39.7570   -6.1710    9.1900 C   0  0  0  0  0  0  0  0  0  0  0  0
  -39.6960   -3.8520    8.6090 C   0  0  0  0  0  0  0  0  0  0  0  0
  -39.1100   -4.9590    9.1820 C   0  0  0  0  0  0  0  0  0  0  0  0
  -37.8680   -4.8460    9.7520 O   0  0  0  0  0  0  0  0  0  0  0  0
  -44.2010   -3.4480   10.0830 N   0  0  0  0  0  0  0  0  0  0  0  0
  -44.2560   -2.0840   10.5990 C   0  0  2  0  0  0  0  0  0  0  0  0
  -42.8900   -1.4350   10.4280 C   0  0  0  0  0  0  0  0  0  0  0  0
  -41.9100   -1.8660   11.0430 O   0  0  0  0  0  0  0  0  0  0  0  0
  -44.6800   -2.0600   12.0630 C   0  0  0  0  0  0  0  0  0  0  0  0
  -44.3580   -0.7390   12.7260 C   0  0  0  0  0  0  0  0  0  0  0  0
  -45.2250   -0.4570   13.9220 C   0  0  0  0  0  0  0  0  0  0  0  0
  -46.3610   -0.9240   14.0000 O   0  0  0  0  0  0  0  0  0  0  0  0
  -44.7030    0.3250   14.8600 N   0  0  0  0  0  0  0  0  0  0  0  0
  -42.8220   -0.4060    9.5890 N   0  0  0  0  0  0  0  0  0  0  0  0
  -41.6100    0.3920    9.4660 C   0  0  2  0  0  0  0  0  0  0  0  0
  -41.6130    1.5850   10.4050 C   0  0  0  0  0  0  0  0  0  0  0  0
  -40.5430    2.0520   10.8150 O   0  0  0  0  0  0  0  0  0  0  0  0
  -41.4420    0.8890    8.0270 C   0  0  0  0  0  0  0  0  0  0  0  0
  -42.7930    2.0770   10.7600 N   0  0  0  0  0  0  0  0  0  0  0  0
  -42.9370    3.3150   11.4800 C   0  0  0  0  0  0  0  0  0  0  0  0
  -43.1850    3.1230   12.9540 C   0  0  0  0  0  0  0  0  0  0  0  0
  -42.9520    2.0420   13.5270 O   0  0  0  0  0  0  0  0  0  0  0  0
  -43.6710    4.1840   13.5950 N   0  0  0  0  0  0  0  0  0  0  0  0
  -43.9040    4.1960   15.0310 C   0  0  2  0  0  0  0  0  0  0  0  0
  -45.3420    3.8710   15.4090 C   0  0  0  0  0  0  0  0  0  0  0  0
  -45.5950    3.4780   16.5520 O   0  0  0  0  0  0  0  0  0  0  0  0
  -43.5230    5.5630   15.6040 C   0  0  0  0  0  0  0  0  0  0  0  0
  -43.7640    5.6040   16.9930 O   0  0  0  0  0  0  0  0  0  0  0  0
  -46.2890    4.0300   14.4860 N   0  0  0  0  0  0  0  0  0  0  0  0
  -47.7330    3.8160   14.4980 C   0  0  2  0  0  0  0  0  0  0  0  0
  -48.0620    2.3700   14.1300 C   0  0  0  0  0  0  0  0  0  0  0  0
  -47.4580    1.8140   13.2070 O   0  0  0  0  0  0  0  0  0  0  0  0
  -48.4260    4.7640   13.5170 C   0  0  2  0  0  0  0  0  0  0  0  0
  -47.9870    6.1040   13.7630 O   0  0  0  0  0  0  0  0  0  0  0  0
  -49.9380    4.7100   13.6650 C   0  0  0  0  0  0  0  0  0  0  0  0
  -48.5100    3.5930    4.2550 N   0  0  0  0  0  0  0  0  0  0  0  0
  -47.2490    4.2020    4.6550 C   0  0  2  0  0  0  0  0  0  0  0  0
  -46.7220    3.5500    5.9280 C   0  0  0  0  0  0  0  0  0  0  0  0
  -47.4740    3.3120    6.8790 O   0  0  0  0  0  0  0  0  0  0  0  0
  -47.4370    5.7010    4.8730 C   0  0  0  0  0  0  0  0  0  0  0  0
  -46.1590    6.4380    5.1470 C   0  0  0  0  0  0  0  0  0  0  0  0
  -45.1800    6.5330    4.1730 C   0  0  0  0  0  0  0  0  0  0  0  0
  -45.9370    7.0380    6.3780 C   0  0  0  0  0  0  0  0  0  0  0  0
  -44.0030    7.2120    4.4180 C   0  0  0  0  0  0  0  0  0  0  0  0
  -44.7620    7.7190    6.6320 C   0  0  0  0  0  0  0  0  0  0  0  0
  -43.7910    7.8040    5.6480 C   0  0  0  0  0  0  0  0  0  0  0  0
  -45.4220    3.2370    5.9300 N   0  0  0  0  0  0  0  0  0  0  0  0
  -44.7480    2.6000    7.0610 C   0  0  2  0  0  0  0  0  0  0  0  0
  -45.3290    1.2270    7.3830 C   0  0  0  0  0  0  0  0  0  0  0  0
  -44.9350    0.5970    8.3690 O   0  0  0  0  0  0  0  0  0  0  0  0
  -44.8140    3.4890    8.3060 C   0  0  0  0  0  0  0  0  0  0  0  0
  -43.6800    4.4910    8.3710 C   0  0  0  0  0  0  0  0  0  0  0  0
  -42.7140    4.4060    7.6130 O   0  0  0  0  0  0  0  0  0  0  0  0
  -43.7980    5.4560    9.2750 N   0  0  0  0  0  0  0  0  0  0  0  0
  -45.8760   -2.0930    5.3370 N   0  0  0  0  0  0  0  0  0  0  0  0
  -45.4970   -2.6610    4.0530 C   0  0  2  0  0  0  0  0  0  0  0  0
  -45.6750   -4.1710    4.0300 C   0  0  0  0  0  0  0  0  0  0  0  0
  -45.3530   -4.8690    4.9990 O   0  0  0  0  0  0  0  0  0  0  0  0
  -44.0460   -2.3110    3.7220 C   0  0  0  0  0  0  0  0  0  0  0  0
  -43.8380   -0.8330    3.5240 C   0  0  0  0  0  0  0  0  0  0  0  0
  -44.2340   -0.2110    2.3490 C   0  0  0  0  0  0  0  0  0  0  0  0
  -43.2690   -0.0530    4.5170 C   0  0  0  0  0  0  0  0  0  0  0  0
  -44.0590    1.1400    2.1640 C   0  0  0  0  0  0  0  0  0  0  0  0
  -43.0890    1.2990    4.3400 C   0  0  0  0  0  0  0  0  0  0  0  0
  -43.4880    1.8920    3.1630 C   0  0  0  0  0  0  0  0  0  0  0  0
  -43.3100    3.2450    2.9810 O   0  0  0  0  0  0  0  0  0  0  0  0
  2  1  1  6
  3  2  1  0
  4  3  2  0
  5  2  1  0
  6  5  1  0
  7  6  1  0
  8  7  1  0
  9  8  1  0
 11 10  1  6
 12 11  1  0
 13 12  2  0
 14 11  1  0
 15 14  1  0
 16 15  2  0
 17 15  1  0
 18 16  1  0
 19 17  2  0
 20 19  1  0
 20 18  2  0
 21 20  1  0
 23 22  1  6
 24 23  1  0
 25 24  2  0
 26 23  1  0
 27 26  1  0
 28 27  1  0
 29 28  1  0
 30 29  1  0
 31 30  1  0
 32 30  2  0
 33 24  1  0
 34 33  1  0
 35 34  1  0
 36 35  2  0
 34 37  1  6
 38 37  1  0
 39 38  1  0
 40 38  1  0
 41 35  1  0
 42 41  1  0
 43 42  1  0
 44 43  2  0
 42 45  1  6
 46 45  1  0
 47 46  2  0
 48 46  1  0
 49 47  1  0
 50 48  2  0
 51 50  1  0
 51 49  2  0
 52 43  1  0
 53 52  1  0
 54 53  1  0
 55 54  2  0
 53 56  1  6
 57 56  1  0
 58 57  1  0
 59 58  1  0
 60 59  1  0
 61 60  1  0
 62 60  2  0
 63 54  1  0
 64 63  1  0
 65 64  1  0
 66 65  2  0
 64 67  1  1
 68 67  1  0
 69 68  1  0
 70 69  1  0
 71 70  1  0
 73 72  1  6
 74 73  1  0
 75 74  2  0
 76 73  1  0
 77 76  1  0
 78 77  2  0
 79 77  1  0
 80 78  1  0
 81 79  2  0
 82 80  2  0
 82 81  1  0
 83 82  1  0
 84 74  1  0
 85 84  1  0
 86 85  1  0
 87 86  2  0
 85 88  1  1
 89 88  1  0
 90 89  1  0
 91 90  2  0
 92 90  1  0
 93 86  1  0
 94 93  1  0
 95 94  1  0
 96 95  2  0
 94 97  1  6
 98 95  1  0
 99 98  1  0
100 99  1  0
101100  2  0
102100  1  0
103102  1  0
104103  1  0
105104  2  0
103106  1  6
107106  1  0
108104  1  0
109108  1  6
110109  1  0
111110  2  0
112109  1  0
113112  1  0
112114  1  1
116115  1  1
117116  1  0
118117  2  0
119116  1  0
120119  1  0
121120  2  0
122120  1  0
123121  1  0
124122  2  0
125123  2  0
125124  1  0
126117  1  0
127126  1  0
128127  1  0
129128  2  0
127130  1  1
131130  1  0
132131  2  0
133131  1  0
135134  1  1
136135  1  0
137136  2  0
138135  1  0
139138  1  0
140139  2  0
141139  1  0
142140  1  0
143141  2  0
144142  2  0
144143  1  0
145144  1  0
M  END
$$$$
