
     RDKit          3D

115113  0  0  0  0  0  0  0  0999 V2000
   31.4770   52.5410   54.3500 N   0  0  0  0  0  0  0  0  0  0  0  0
   30.7220   51.2760   54.5390 C   0  0  2  0  0  0  0  0  0  0  0  0
   29.5170   51.5110   55.4600 C   0  0  0  0  0  0  0  0  0  0  0  0
   29.6370   52.3370   56.3760 O   0  0  0  0  0  0  0  0  0  0  0  0
   31.6770   50.1910   55.0420 C   0  0  0  0  0  0  0  0  0  0  0  0
   32.3160   49.3140   53.9750 C   0  0  0  0  0  0  0  0  0  0  0  0
   33.6530   49.8170   53.4800 C   0  0  0  0  0  0  0  0  0  0  0  0
   34.3210   48.8430   52.5330 C   0  0  0  0  0  0  0  0  0  0  0  0
   35.5970   49.3770   52.0050 N   0  0  0  0  0  0  0  0  0  0  0  0
   32.5540   44.2260   66.6740 N   0  0  0  0  0  0  0  0  0  0  0  0
   32.8300   45.6660   66.5570 C   0  0  2  0  0  0  0  0  0  0  0  0
   32.3400   46.1720   65.2070 C   0  0  0  0  0  0  0  0  0  0  0  0
   32.5880   45.5010   64.1980 O   0  0  0  0  0  0  0  0  0  0  0  0
   34.3290   45.8730   66.6370 C   0  0  0  0  0  0  0  0  0  0  0  0
   34.9730   45.5460   68.2920 S   0  0  0  0  0  0  0  0  0  0  0  0
   31.6580   47.3130   65.2040 N   0  0  0  0  0  0  0  0  0  0  0  0
   31.2310   47.9020   63.9110 C   0  0  2  0  0  0  0  0  0  0  0  0
   32.5080   48.2210   63.1650 C   0  0  0  0  0  0  0  0  0  0  0  0
   33.4060   48.8120   63.7560 O   0  0  0  0  0  0  0  0  0  0  0  0
   30.4420   49.1950   64.1380 C   0  0  0  0  0  0  0  0  0  0  0  0
   30.0960   49.8850   62.8300 C   0  0  0  0  0  0  0  0  0  0  0  0
   29.1940   48.9530   64.9670 C   0  0  0  0  0  0  0  0  0  0  0  0
   32.5700   47.8230   61.9130 N   0  0  0  0  0  0  0  0  0  0  0  0
   33.8150   48.0370   61.1570 C   0  0  2  0  0  0  0  0  0  0  0  0
   33.5070   48.9900   60.0130 C   0  0  0  0  0  0  0  0  0  0  0  0
   34.3880   49.1680   59.1650 O   0  0  0  0  0  0  0  0  0  0  0  0
   34.3200   46.6840   60.6870 C   0  0  0  0  0  0  0  0  0  0  0  0
   34.6970   45.7750   61.8390 C   0  0  0  0  0  0  0  0  0  0  0  0
   35.0760   46.3080   62.8950 O   0  0  0  0  0  0  0  0  0  0  0  0
   34.5910   44.5470   61.6740 O   0  0  0  0  0  0  0  0  0  0  0  0
   32.3190   49.5990   60.0090 N   0  0  0  0  0  0  0  0  0  0  0  0
   31.9090   50.4320   58.8500 C   0  0  2  0  0  0  0  0  0  0  0  0
   31.5920   51.8510   59.2790 C   0  0  0  0  0  0  0  0  0  0  0  0
   31.2090   52.0510   60.4300 O   0  0  0  0  0  0  0  0  0  0  0  0
   30.5640   49.9780   58.2920 C   0  0  2  0  0  0  0  0  0  0  0  0
   29.5530   50.3470   59.2270 O   0  0  0  0  0  0  0  0  0  0  0  0
   30.5170   48.4940   58.0110 C   0  0  0  0  0  0  0  0  0  0  0  0
   31.7250   52.7910   58.3600 N   0  0  0  0  0  0  0  0  0  0  0  0
   31.5330   54.2050   58.7380 C   0  0  2  0  0  0  0  0  0  0  0  0
   30.1060   54.4050   59.1920 C   0  0  0  0  0  0  0  0  0  0  0  0
   29.8740   55.2180   60.0920 O   0  0  0  0  0  0  0  0  0  0  0  0
   31.7860   55.0680   57.5680 C   0  0  0  0  0  0  0  0  0  0  0  0
   30.8870   54.7450   56.5240 O   0  0  0  0  0  0  0  0  0  0  0  0
   30.7320   58.3510   67.1400 N   0  0  0  0  0  0  0  0  0  0  0  0
   31.5380   57.4630   68.0020 C   0  0  2  0  0  0  0  0  0  0  0  0
   32.8690   57.1360   67.3370 C   0  0  0  0  0  0  0  0  0  0  0  0
   32.8790   56.8640   66.1360 O   0  0  0  0  0  0  0  0  0  0  0  0
   30.6850   56.2930   68.4870 C   0  0  0  0  0  0  0  0  0  0  0  0
   29.9180   56.6650   69.7260 C   0  0  0  0  0  0  0  0  0  0  0  0
   30.5780   57.2050   70.8170 C   0  0  0  0  0  0  0  0  0  0  0  0
   28.5440   56.5310   69.7890 C   0  0  0  0  0  0  0  0  0  0  0  0
   29.8870   57.5790   71.9580 C   0  0  0  0  0  0  0  0  0  0  0  0
   27.8530   56.9070   70.9300 C   0  0  0  0  0  0  0  0  0  0  0  0
   28.5230   57.4270   72.0130 C   0  0  0  0  0  0  0  0  0  0  0  0
   33.9690   57.2690   68.0760 N   0  0  0  0  0  0  0  0  0  0  0  0
   35.2720   56.8540   67.5290 C   0  0  0  0  0  0  0  0  0  0  0  0
   35.3320   55.3600   67.3350 C   0  0  0  0  0  0  0  0  0  0  0  0
   35.8630   54.9220   66.3010 O   0  0  0  0  0  0  0  0  0  0  0  0
   34.8490   54.6020   68.3150 N   0  0  0  0  0  0  0  0  0  0  0  0
   34.7740   53.1430   68.1060 C   0  0  2  0  0  0  0  0  0  0  0  0
   33.7580   52.5460   69.0550 C   0  0  0  0  0  0  0  0  0  0  0  0
   33.6330   53.0470   70.1780 O   0  0  0  0  0  0  0  0  0  0  0  0
   36.0810   52.5210   68.3140 C   0  0  0  0  0  0  0  0  0  0  0  0
   35.9230   51.1200   68.4600 O   0  0  0  0  0  0  0  0  0  0  0  0
   33.1170   51.4780   68.6190 N   0  0  0  0  0  0  0  0  0  0  0  0
   32.0580   50.8860   69.4580 C   0  0  2  0  0  0  0  0  0  0  0  0
   31.9590   49.4270   69.0740 C   0  0  0  0  0  0  0  0  0  0  0  0
   32.2420   49.1110   67.9190 O   0  0  0  0  0  0  0  0  0  0  0  0
   30.7500   51.6220   69.1620 C   0  0  0  0  0  0  0  0  0  0  0  0
   30.6170   51.9700   67.6910 C   0  0  0  0  0  0  0  0  0  0  0  0
   29.5310   50.8670   69.6570 C   0  0  0  0  0  0  0  0  0  0  0  0
   31.5860   48.5790   70.0190 N   0  0  0  0  0  0  0  0  0  0  0  0
   31.3800   47.1520   69.6950 C   0  0  2  0  0  0  0  0  0  0  0  0
   30.3160   46.6150   70.6390 C   0  0  0  0  0  0  0  0  0  0  0  0
   30.0230   47.3030   71.6190 O   0  0  0  0  0  0  0  0  0  0  0  0
   32.6290   46.3410   69.9680 C   0  0  0  0  0  0  0  0  0  0  0  0
   34.1520   47.0710   69.3210 S   0  0  0  0  0  0  0  0  0  0  0  0
   34.6360   54.1020   72.6460 N   0  0  0  0  0  0  0  0  0  0  0  0
   35.9200   54.7220   72.2700 C   0  0  2  0  0  0  0  0  0  0  0  0
   35.5630   56.0720   71.6850 C   0  0  0  0  0  0  0  0  0  0  0  0
   35.0510   56.0920   70.5650 O   0  0  0  0  0  0  0  0  0  0  0  0
   36.5880   53.9110   71.2590 C   0  0  0  0  0  0  0  0  0  0  0  0
   37.3910   54.7420   70.4380 O   0  0  0  0  0  0  0  0  0  0  0  0
   35.8410   57.1530   72.4000 N   0  0  0  0  0  0  0  0  0  0  0  0
   35.3650   58.4680   71.9030 C   0  0  2  0  0  0  0  0  0  0  0  0
   36.1260   58.8320   70.6310 C   0  0  0  0  0  0  0  0  0  0  0  0
   37.3440   58.6230   70.6230 O   0  0  0  0  0  0  0  0  0  0  0  0
   35.4450   59.5240   73.0040 C   0  0  0  0  0  0  0  0  0  0  0  0
   34.2120   59.5650   73.8880 C   0  0  0  0  0  0  0  0  0  0  0  0
   33.1180   59.2600   73.3790 O   0  0  0  0  0  0  0  0  0  0  0  0
   34.3560   59.8980   75.0770 O   0  0  0  0  0  0  0  0  0  0  0  0
   35.4430   59.3400   69.5980 N   0  0  0  0  0  0  0  0  0  0  0  0
   36.1860   59.8050   68.4110 C   0  0  0  0  0  0  0  0  0  0  0  0
   35.3440   60.0870   67.1800 C   0  0  0  0  0  0  0  0  0  0  0  0
   34.1090   59.9670   67.2640 O   0  0  0  0  0  0  0  0  0  0  0  0
   36.0040   60.4000   66.0620 N   0  0  0  0  0  0  0  0  0  0  0  0
   35.3020   60.7520   64.8070 C   0  0  2  0  0  0  0  0  0  0  0  0
   35.6150   59.7080   63.7500 C   0  0  0  0  0  0  0  0  0  0  0  0
   36.7840   59.3580   63.5960 O   0  0  0  0  0  0  0  0  0  0  0  0
   35.8210   62.0680   64.2450 C   0  0  0  0  0  0  0  0  0  0  0  0
   37.3340   62.1790   64.2410 C   0  0  0  0  0  0  0  0  0  0  0  0
   37.9210   62.2470   65.3350 O   0  0  0  0  0  0  0  0  0  0  0  0
   37.9120   62.1860   63.1420 O   0  0  0  0  0  0  0  0  0  0  0  0
   34.5970   59.2640   63.0290 N   0  0  0  0  0  0  0  0  0  0  0  0
   34.7960   58.2440   61.9890 C   0  0  0  0  0  0  0  0  0  0  0  0
   33.5980   57.3220   61.9030 C   0  0  0  0  0  0  0  0  0  0  0  0
   33.2330   56.9230   60.7920 O   0  0  0  0  0  0  0  0  0  0  0  0
   32.9880   57.0020   63.0330 N   0  0  0  0  0  0  0  0  0  0  0  0
   31.8740   56.0300   62.9600 C   0  0  2  0  0  0  0  0  0  0  0  0
   30.6020   56.7920   63.2720 C   0  0  0  0  0  0  0  0  0  0  0  0
   30.5880   57.5090   64.2750 O   0  0  0  0  0  0  0  0  0  0  0  0
   32.1160   54.9080   63.9640 C   0  0  2  0  0  0  0  0  0  0  0  0
   33.5640   54.4210   63.9050 C   0  0  0  0  0  0  0  0  0  0  0  0
   31.1300   53.7770   63.7370 C   0  0  0  0  0  0  0  0  0  0  0  0
   33.7770   53.0770   64.5550 C   0  0  0  0  0  0  0  0  0  0  0  0
  2  1  1  1
  3  2  1  0
  4  3  2  0
  5  2  1  0
  6  5  1  0
  7  6  1  0
  8  7  1  0
  9  8  1  0
 11 10  1  6
 12 11  1  0
 13 12  2  0
 14 11  1  0
 15 14  1  0
 16 12  1  0
 17 16  1  1
 18 17  1  0
 19 18  2  0
 20 17  1  0
 21 20  1  0
 22 20  1  0
 23 18  1  0
 24 23  1  0
 25 24  1  0
 26 25  2  0
 24 27  1  6
 28 27  1  0
 29 28  2  0
 30 28  1  0
 31 25  1  0
 32 31  1  1
 33 32  1  0
 34 33  2  0
 35 32  1  0
 36 35  1  0
 35 37  1  1
 38 33  1  0
 39 38  1  0
 40 39  1  0
 41 40  2  0
 39 42  1  6
 43 42  1  0
 45 44  1  6
 46 45  1  0
 47 46  2  0
 48 45  1  0
 49 48  1  0
 50 49  2  0
 51 49  1  0
 52 50  1  0
 53 51  2  0
 54 53  1  0
 54 52  2  0
 55 46  1  0
 56 55  1  0
 57 56  1  0
 58 57  2  0
 59 57  1  0
 60 59  1  0
 61 60  1  0
 62 61  2  0
 60 63  1  1
 64 63  1  0
 65 61  1  0
 66 65  1  6
 67 66  1  0
 68 67  2  0
 69 66  1  0
 70 69  1  0
 71 69  1  0
 72 67  1  0
 73 72  1  0
 74 73  1  0
 75 74  2  0
 73 76  1  1
 77 76  1  0
 77 15  1  0
 79 78  1  6
 80 79  1  0
 81 80  2  0
 82 79  1  0
 83 82  1  0
 84 80  1  0
 85 84  1  0
 86 85  1  0
 87 86  2  0
 85 88  1  1
 89 88  1  0
 90 89  2  0
 91 89  1  0
 92 86  1  0
 93 92  1  0
 94 93  1  0
 95 94  2  0
 96 94  1  0
 97 96  1  0
 98 97  1  0
 99 98  2  0
 97100  1  6
101100  1  0
102101  2  0
103101  1  0
104 98  1  0
105104  1  0
106105  1  0
107106  2  0
108106  1  0
109108  1  1
110109  1  0
111110  2  0
112109  1  0
113112  1  0
112114  1  6
115113  1  0
M  END
$$$$
