
     RDKit          3D

144143  0  0  0  0  0  0  0  0999 V2000
   -4.2640  -26.4220   -7.7320 N   0  0  0  0  0  0  0  0  0  0  0  0
   -5.3210  -25.5820   -7.1800 C   0  0  2  0  0  0  0  0  0  0  0  0
   -5.3700  -24.2190   -7.8640 C   0  0  0  0  0  0  0  0  0  0  0  0
   -6.4560  -23.6850   -8.1170 O   0  0  0  0  0  0  0  0  0  0  0  0
   -5.1310  -25.4300   -5.6710 C   0  0  0  0  0  0  0  0  0  0  0  0
   -5.4430  -26.7000   -4.8840 C   0  0  0  0  0  0  0  0  0  0  0  0
   -5.3410  -26.4680   -3.3820 C   0  0  0  0  0  0  0  0  0  0  0  0
   -5.5050  -27.7670   -2.5970 C   0  0  0  0  0  0  0  0  0  0  0  0
   -4.4440  -28.7690   -2.9000 N   0  0  0  0  0  0  0  0  0  0  0  0
   -8.2870  -23.8800  -10.6080 N   0  0  0  0  0  0  0  0  0  0  0  0
   -9.3960  -23.2210   -9.9310 C   0  0  2  0  0  0  0  0  0  0  0  0
   -9.2280  -21.7200   -9.7270 C   0  0  0  0  0  0  0  0  0  0  0  0
  -10.1360  -21.0890   -9.1730 O   0  0  0  0  0  0  0  0  0  0  0  0
   -9.6460  -23.8720   -8.5610 C   0  0  0  0  0  0  0  0  0  0  0  0
   -9.9570  -25.3550   -8.5930 C   0  0  0  0  0  0  0  0  0  0  0  0
  -10.5590  -25.9440   -9.7000 C   0  0  0  0  0  0  0  0  0  0  0  0
   -9.6660  -26.1630   -7.5010 C   0  0  0  0  0  0  0  0  0  0  0  0
  -10.8470  -27.3000   -9.7210 C   0  0  0  0  0  0  0  0  0  0  0  0
   -9.9500  -27.5140   -7.5120 C   0  0  0  0  0  0  0  0  0  0  0  0
  -10.5400  -28.0780   -8.6220 C   0  0  0  0  0  0  0  0  0  0  0  0
  -10.8200  -29.4250   -8.6260 O   0  0  0  0  0  0  0  0  0  0  0  0
   -9.2100  -19.8950   -4.3170 N   0  0  0  0  0  0  0  0  0  0  0  0
  -10.3490  -20.7990   -4.4230 C   0  0  2  0  0  0  0  0  0  0  0  0
   -9.8840  -22.2310   -4.1840 C   0  0  0  0  0  0  0  0  0  0  0  0
   -9.0340  -22.7460   -4.9180 O   0  0  0  0  0  0  0  0  0  0  0  0
  -11.0210  -20.6730   -5.7870 C   0  0  0  0  0  0  0  0  0  0  0  0
  -12.2820  -21.5190   -5.9180 C   0  0  0  0  0  0  0  0  0  0  0  0
  -13.0650  -21.1580   -7.1690 C   0  0  0  0  0  0  0  0  0  0  0  0
  -13.3740  -19.7320   -7.2100 N   0  0  0  0  0  0  0  0  0  0  0  0
  -14.4310  -19.1770   -6.6270 C   0  0  0  0  0  0  0  0  0  0  0  0
  -15.2970  -19.9260   -5.9570 N   0  0  0  0  0  0  0  0  0  0  0  0
  -14.6230  -17.8670   -6.7160 N   0  0  0  0  0  0  0  0  0  0  0  0
  -10.4420  -22.8710   -3.1580 N   0  0  0  0  0  0  0  0  0  0  0  0
  -10.0850  -24.2360   -2.7920 C   0  0  2  0  0  0  0  0  0  0  0  0
  -11.0080  -25.2760   -3.4110 C   0  0  0  0  0  0  0  0  0  0  0  0
  -10.5410  -26.3380   -3.8320 O   0  0  0  0  0  0  0  0  0  0  0  0
  -10.0930  -24.3900   -1.2660 C   0  0  0  0  0  0  0  0  0  0  0  0
   -9.7660  -25.7760   -0.7020 C   0  0  0  0  0  0  0  0  0  0  0  0
   -8.3740  -26.2040   -1.1210 C   0  0  0  0  0  0  0  0  0  0  0  0
   -9.9010  -25.8010    0.8130 C   0  0  0  0  0  0  0  0  0  0  0  0
  -12.3060  -24.9910   -3.4840 N   0  0  0  0  0  0  0  0  0  0  0  0
  -13.2970  -25.9350   -3.9830 C   0  0  2  0  0  0  0  0  0  0  0  0
  -13.9150  -25.4130   -5.2720 C   0  0  0  0  0  0  0  0  0  0  0  0
  -14.3510  -24.2590   -5.3360 O   0  0  0  0  0  0  0  0  0  0  0  0
  -14.3910  -26.1800   -2.9420 C   0  0  0  0  0  0  0  0  0  0  0  0
  -13.8900  -26.8100   -1.6760 C   0  0  0  0  0  0  0  0  0  0  0  0
  -13.5140  -28.1440   -1.6530 C   0  0  0  0  0  0  0  0  0  0  0  0
  -13.7940  -26.0690   -0.5100 C   0  0  0  0  0  0  0  0  0  0  0  0
  -13.0530  -28.7270   -0.4890 C   0  0  0  0  0  0  0  0  0  0  0  0
  -13.3340  -26.6460    0.6550 C   0  0  0  0  0  0  0  0  0  0  0  0
  -12.9620  -27.9780    0.6670 C   0  0  0  0  0  0  0  0  0  0  0  0
  -13.9520  -26.2680   -6.2910 N   0  0  0  0  0  0  0  0  0  0  0  0
  -14.6250  -25.9560   -7.5420 C   0  0  2  0  0  0  0  0  0  0  0  0
  -14.9260  -27.2610   -8.2600 C   0  0  0  0  0  0  0  0  0  0  0  0
  -14.1180  -28.1940   -8.2330 O   0  0  0  0  0  0  0  0  0  0  0  0
  -13.7820  -25.0330   -8.4310 C   0  0  0  0  0  0  0  0  0  0  0  0
  -14.6140  -24.1790   -9.3730 C   0  0  0  0  0  0  0  0  0  0  0  0
  -13.7520  -23.2980  -10.2670 C   0  0  0  0  0  0  0  0  0  0  0  0
  -14.5440  -22.2370  -10.8820 N   0  0  0  0  0  0  0  0  0  0  0  0
  -15.0760  -22.3100  -12.0970 C   0  0  0  0  0  0  0  0  0  0  0  0
  -14.8960  -23.3960  -12.8370 N   0  0  0  0  0  0  0  0  0  0  0  0
  -15.7860  -21.2960  -12.5770 N   0  0  0  0  0  0  0  0  0  0  0  0
  -16.0950  -27.3190   -8.8990 N   0  0  0  0  0  0  0  0  0  0  0  0
  -16.5240  -28.5600   -9.5350 C   0  0  2  0  0  0  0  0  0  0  0  0
  -15.7460  -28.8370  -10.8160 C   0  0  0  0  0  0  0  0  0  0  0  0
  -15.4630  -30.0000  -11.1250 O   0  0  0  0  0  0  0  0  0  0  0  0
  -18.0280  -28.5040   -9.8090 C   0  0  0  0  0  0  0  0  0  0  0  0
  -18.6210  -29.7580  -10.4380 C   0  0  0  0  0  0  0  0  0  0  0  0
  -20.1370  -29.6350  -10.5630 C   0  0  0  0  0  0  0  0  0  0  0  0
  -20.7400  -30.7940  -11.3420 C   0  0  0  0  0  0  0  0  0  0  0  0
  -22.2270  -30.7130  -11.4060 N   0  0  0  0  0  0  0  0  0  0  0  0
  -15.3770  -27.7960  -11.5610 N   0  0  0  0  0  0  0  0  0  0  0  0
  -14.6990  -27.9640  -12.8380 C   0  0  2  0  0  0  0  0  0  0  0  0
  -13.5590  -26.9620  -12.9480 C   0  0  0  0  0  0  0  0  0  0  0  0
  -13.4660  -26.0020  -12.1790 O   0  0  0  0  0  0  0  0  0  0  0  0
  -15.6720  -27.7990  -14.0110 C   0  0  0  0  0  0  0  0  0  0  0  0
  -16.6670  -28.8070  -13.9870 O   0  0  0  0  0  0  0  0  0  0  0  0
  -20.0200  -24.2820   -1.4650 N   0  0  0  0  0  0  0  0  0  0  0  0
  -19.7330  -25.3930   -2.3610 C   0  0  2  0  0  0  0  0  0  0  0  0
  -20.4290  -26.6610   -1.8850 C   0  0  0  0  0  0  0  0  0  0  0  0
  -20.2660  -27.0780   -0.7340 O   0  0  0  0  0  0  0  0  0  0  0  0
  -18.2270  -25.6190   -2.4610 C   0  0  0  0  0  0  0  0  0  0  0  0
  -17.8490  -26.7210   -3.4180 C   0  0  0  0  0  0  0  0  0  0  0  0
  -17.8750  -26.5150   -4.7920 C   0  0  0  0  0  0  0  0  0  0  0  0
  -17.4620  -27.9680   -2.9490 C   0  0  0  0  0  0  0  0  0  0  0  0
  -17.5270  -27.5260   -5.6720 C   0  0  0  0  0  0  0  0  0  0  0  0
  -17.1110  -28.9810   -3.8170 C   0  0  0  0  0  0  0  0  0  0  0  0
  -17.1450  -28.7580   -5.1760 C   0  0  0  0  0  0  0  0  0  0  0  0
  -16.7950  -29.7730   -6.0350 O   0  0  0  0  0  0  0  0  0  0  0  0
  -21.1910  -27.2810   -2.7840 N   0  0  0  0  0  0  0  0  0  0  0  0
  -21.9990  -28.4550   -2.4610 C   0  0  2  0  0  0  0  0  0  0  0  0
  -21.1830  -29.7090   -2.7550 C   0  0  0  0  0  0  0  0  0  0  0  0
  -21.0240  -30.1040   -3.9120 O   0  0  0  0  0  0  0  0  0  0  0  0
  -23.2980  -28.4370   -3.2570 C   0  0  0  0  0  0  0  0  0  0  0  0
  -24.3360  -29.4350   -2.7800 C   0  0  0  0  0  0  0  0  0  0  0  0
  -25.6060  -29.3840   -3.6030 C   0  0  0  0  0  0  0  0  0  0  0  0
  -26.0040  -30.3780   -4.2110 O   0  0  0  0  0  0  0  0  0  0  0  0
  -26.2400  -28.2160   -3.6430 N   0  0  0  0  0  0  0  0  0  0  0  0
  -20.6720  -30.3430   -1.7020 N   0  0  0  0  0  0  0  0  0  0  0  0
  -19.8540  -31.5420   -1.8260 C   0  0  2  0  0  0  0  0  0  0  0  0
  -20.6620  -32.8300   -1.7240 C   0  0  0  0  0  0  0  0  0  0  0  0
  -20.0740  -33.9160   -1.7570 O   0  0  0  0  0  0  0  0  0  0  0  0
  -18.7550  -31.5430   -0.7590 C   0  0  0  0  0  0  0  0  0  0  0  0
  -21.9840  -32.7370   -1.6010 N   0  0  0  0  0  0  0  0  0  0  0  0
  -22.8280  -33.9140   -1.5400 C   0  0  0  0  0  0  0  0  0  0  0  0
  -24.1610  -33.7130   -2.2340 C   0  0  0  0  0  0  0  0  0  0  0  0
  -24.3410  -32.7450   -2.9800 O   0  0  0  0  0  0  0  0  0  0  0  0
  -25.1090  -34.6190   -1.9890 N   0  0  0  0  0  0  0  0  0  0  0  0
  -26.4070  -34.5410   -2.6490 C   0  0  2  0  0  0  0  0  0  0  0  0
  -27.3210  -33.5070   -2.0050 C   0  0  0  0  0  0  0  0  0  0  0  0
  -28.1690  -32.9250   -2.6920 O   0  0  0  0  0  0  0  0  0  0  0  0
  -27.0870  -35.9120   -2.6350 C   0  0  0  0  0  0  0  0  0  0  0  0
  -26.3400  -36.8620   -3.3760 O   0  0  0  0  0  0  0  0  0  0  0  0
  -21.6700  -29.6470    6.9690 N   0  0  0  0  0  0  0  0  0  0  0  0
  -21.1570  -30.8740    6.3730 C   0  0  2  0  0  0  0  0  0  0  0  0
  -21.4970  -30.9260    4.8900 C   0  0  0  0  0  0  0  0  0  0  0  0
  -22.6550  -30.7480    4.5010 O   0  0  0  0  0  0  0  0  0  0  0  0
  -21.7300  -32.0950    7.0930 C   0  0  0  0  0  0  0  0  0  0  0  0
  -21.1910  -33.4050    6.5890 C   0  0  0  0  0  0  0  0  0  0  0  0
  -19.8950  -33.7960    6.8860 C   0  0  0  0  0  0  0  0  0  0  0  0
  -21.9820  -34.2520    5.8280 C   0  0  0  0  0  0  0  0  0  0  0  0
  -19.3930  -35.0020    6.4260 C   0  0  0  0  0  0  0  0  0  0  0  0
  -21.4860  -35.4630    5.3670 C   0  0  0  0  0  0  0  0  0  0  0  0
  -20.1900  -35.8360    5.6670 C   0  0  0  0  0  0  0  0  0  0  0  0
  -20.4760  -31.1660    4.0630 N   0  0  0  0  0  0  0  0  0  0  0  0
  -20.5900  -31.1550    2.6050 C   0  0  2  0  0  0  0  0  0  0  0  0
  -21.0140  -29.7910    2.0720 C   0  0  0  0  0  0  0  0  0  0  0  0
  -21.5390  -29.6910    0.9580 O   0  0  0  0  0  0  0  0  0  0  0  0
  -21.5550  -32.2400    2.1100 C   0  0  0  0  0  0  0  0  0  0  0  0
  -20.9740  -33.6350    2.2260 C   0  0  0  0  0  0  0  0  0  0  0  0
  -19.8680  -33.8210    2.7370 O   0  0  0  0  0  0  0  0  0  0  0  0
  -21.7230  -34.6280    1.7590 N   0  0  0  0  0  0  0  0  0  0  0  0
  -19.1750  -26.1290    2.0780 N   0  0  0  0  0  0  0  0  0  0  0  0
  -17.9670  -25.4070    2.4330 C   0  0  2  0  0  0  0  0  0  0  0  0
  -17.8950  -24.0770    1.7020 C   0  0  0  0  0  0  0  0  0  0  0  0
  -18.3420  -23.9470    0.5570 O   0  0  0  0  0  0  0  0  0  0  0  0
  -16.7310  -26.2500    2.1170 C   0  0  0  0  0  0  0  0  0  0  0  0
  -16.8980  -27.6580    2.6120 C   0  0  0  0  0  0  0  0  0  0  0  0
  -16.8610  -27.9350    3.9680 C   0  0  0  0  0  0  0  0  0  0  0  0
  -17.1430  -28.7030    1.7320 C   0  0  0  0  0  0  0  0  0  0  0  0
  -17.0370  -29.2130    4.4370 C   0  0  0  0  0  0  0  0  0  0  0  0
  -17.3180  -29.9900    2.1930 C   0  0  0  0  0  0  0  0  0  0  0  0
  -17.2650  -30.2380    3.5480 C   0  0  0  0  0  0  0  0  0  0  0  0
  -17.4410  -31.5150    4.0260 O   0  0  0  0  0  0  0  0  0  0  0  0
  2  1  1  6
  3  2  1  0
  4  3  2  0
  5  2  1  0
  6  5  1  0
  7  6  1  0
  8  7  1  0
  9  8  1  0
 11 10  1  1
 12 11  1  0
 13 12  2  0
 14 11  1  0
 15 14  1  0
 16 15  2  0
 17 15  1  0
 18 16  1  0
 19 17  2  0
 20 19  1  0
 20 18  2  0
 21 20  1  0
 23 22  1  6
 24 23  1  0
 25 24  2  0
 26 23  1  0
 27 26  1  0
 28 27  1  0
 29 28  1  0
 30 29  1  0
 31 30  1  0
 32 30  2  0
 33 24  1  0
 34 33  1  0
 35 34  1  0
 36 35  2  0
 34 37  1  1
 38 37  1  0
 39 38  1  0
 40 38  1  0
 41 35  1  0
 42 41  1  0
 43 42  1  0
 44 43  2  0
 42 45  1  1
 46 45  1  0
 47 46  2  0
 48 46  1  0
 49 47  1  0
 50 48  2  0
 51 49  2  0
 51 50  1  0
 52 43  1  0
 53 52  1  0
 54 53  1  0
 55 54  2  0
 53 56  1  6
 57 56  1  0
 58 57  1  0
 59 58  1  0
 60 59  1  0
 61 60  1  0
 62 60  2  0
 63 54  1  0
 64 63  1  0
 65 64  1  0
 66 65  2  0
 64 67  1  6
 68 67  1  0
 69 68  1  0
 70 69  1  0
 71 70  1  0
 72 65  1  0
 73 72  1  0
 74 73  1  0
 75 74  2  0
 73 76  1  6
 77 76  1  0
 79 78  1  1
 80 79  1  0
 81 80  2  0
 82 79  1  0
 83 82  1  0
 84 83  2  0
 85 83  1  0
 86 84  1  0
 87 85  2  0
 88 86  2  0
 88 87  1  0
 89 88  1  0
 90 80  1  0
 91 90  1  0
 92 91  1  0
 93 92  2  0
 91 94  1  6
 95 94  1  0
 96 95  1  0
 97 96  2  0
 98 96  1  0
 99 92  1  0
100 99  1  0
101100  1  0
102101  2  0
100103  1  1
104101  1  0
105104  1  0
106105  1  0
107106  2  0
108106  1  0
109108  1  0
110109  1  0
111110  2  0
109112  1  1
113112  1  0
115114  1  1
116115  1  0
117116  2  0
118115  1  0
119118  1  0
120119  2  0
121119  1  0
122120  1  0
123121  2  0
124123  1  0
124122  2  0
125116  1  0
126125  1  0
127126  1  0
128127  2  0
126129  1  1
130129  1  0
131130  2  0
132130  1  0
134133  1  6
135134  1  0
136135  2  0
137134  1  0
138137  1  0
139138  2  0
140138  1  0
141139  1  0
142140  2  0
143142  1  0
143141  2  0
144143  1  0
M  END
$$$$
