
     RDKit          3D

119119  0  0  0  0  0  0  0  0999 V2000
    1.4310  -18.8400   -3.4440 N   0  0  0  0  0  0  0  0  0  0  0  0
    2.5200  -19.4870   -2.7230 C   0  0  2  0  0  0  0  0  0  0  0  0
    3.7380  -19.6800   -3.6240 C   0  0  0  0  0  0  0  0  0  0  0  0
    3.6400  -19.7260   -4.8530 O   0  0  0  0  0  0  0  0  0  0  0  0
    2.0840  -20.8500   -2.1800 C   0  0  0  0  0  0  0  0  0  0  0  0
    1.4760  -20.8270   -0.7910 C   0  0  0  0  0  0  0  0  0  0  0  0
    0.8250  -22.1650   -0.4630 C   0  0  0  0  0  0  0  0  0  0  0  0
    1.7680  -23.2760   -0.5690 N   0  0  0  0  0  0  0  0  0  0  0  0
    1.4690  -24.5410   -0.2920 C   0  0  0  0  0  0  0  0  0  0  0  0
    0.2460  -24.8620    0.1120 N   0  0  0  0  0  0  0  0  0  0  0  0
    2.3910  -25.4870   -0.4160 N   0  0  0  0  0  0  0  0  0  0  0  0
   -4.2130  -12.5500    6.5280 N   0  0  0  0  0  0  0  0  0  0  0  0
   -5.3740  -13.2910    6.0540 C   0  0  2  0  0  0  0  0  0  0  0  0
   -6.1300  -12.5630    4.9470 C   0  0  0  0  0  0  0  0  0  0  0  0
   -7.2790  -12.9100    4.6560 O   0  0  0  0  0  0  0  0  0  0  0  0
   -6.2980  -13.6050    7.2300 C   0  0  0  0  0  0  0  0  0  0  0  0
   -5.6450  -14.5100    8.2520 C   0  0  0  0  0  0  0  0  0  0  0  0
   -5.5520  -15.8800    8.0350 C   0  0  0  0  0  0  0  0  0  0  0  0
   -5.0980  -13.9920    9.4190 C   0  0  0  0  0  0  0  0  0  0  0  0
   -4.9470  -16.7100    8.9580 C   0  0  0  0  0  0  0  0  0  0  0  0
   -4.4890  -14.8150   10.3500 C   0  0  0  0  0  0  0  0  0  0  0  0
   -4.4160  -16.1740   10.1130 C   0  0  0  0  0  0  0  0  0  0  0  0
   -3.8130  -17.0010   11.0330 O   0  0  0  0  0  0  0  0  0  0  0  0
   -7.5360  -17.7640   -1.9590 N   0  0  0  0  0  0  0  0  0  0  0  0
   -7.5250  -18.6120   -3.1420 C   0  0  2  0  0  0  0  0  0  0  0  0
   -8.7750  -19.4780   -3.1310 C   0  0  0  0  0  0  0  0  0  0  0  0
   -9.3340  -19.7690   -2.0700 O   0  0  0  0  0  0  0  0  0  0  0  0
   -6.2720  -19.5030   -3.1940 C   0  0  0  0  0  0  0  0  0  0  0  0
   -6.1980  -20.5030   -2.0610 C   0  0  0  0  0  0  0  0  0  0  0  0
   -5.6490  -20.1510   -0.8330 C   0  0  0  0  0  0  0  0  0  0  0  0
   -6.6820  -21.7990   -2.2160 C   0  0  0  0  0  0  0  0  0  0  0  0
   -5.5860  -21.0600    0.2110 C   0  0  0  0  0  0  0  0  0  0  0  0
   -6.6230  -22.7160   -1.1770 C   0  0  0  0  0  0  0  0  0  0  0  0
   -6.0740  -22.3410    0.0340 C   0  0  0  0  0  0  0  0  0  0  0  0
   -6.0120  -23.2490    1.0690 O   0  0  0  0  0  0  0  0  0  0  0  0
   -8.1200  -18.6010    3.0760 N   0  0  0  0  0  0  0  0  0  0  0  0
   -7.0410  -17.6520    3.2850 C   0  0  2  0  0  0  0  0  0  0  0  0
   -5.6990  -18.3710    3.2880 C   0  0  0  0  0  0  0  0  0  0  0  0
   -5.5630  -19.4580    3.8580 O   0  0  0  0  0  0  0  0  0  0  0  0
   -7.2380  -16.9050    4.6030 C   0  0  0  0  0  0  0  0  0  0  0  0
   -6.1030  -16.1180    4.9080 O   0  0  0  0  0  0  0  0  0  0  0  0
   -4.7070  -17.7600    2.6350 N   0  0  0  0  0  0  0  0  0  0  0  0
   -3.3600  -18.3190    2.6650 C   0  0  2  0  0  0  0  0  0  0  0  0
   -2.7920  -18.3010    4.0790 C   0  0  0  0  0  0  0  0  0  0  0  0
   -2.1320  -19.2560    4.5050 O   0  0  0  0  0  0  0  0  0  0  0  0
   -2.4490  -17.5470    1.7140 C   0  0  0  0  0  0  0  0  0  0  0  0
   -2.4690  -18.0500    0.2890 C   0  0  0  0  0  0  0  0  0  0  0  0
   -2.0850  -19.3500   -0.0160 C   0  0  0  0  0  0  0  0  0  0  0  0
   -2.8530  -17.2170   -0.7560 C   0  0  0  0  0  0  0  0  0  0  0  0
   -2.0960  -19.8110   -1.3210 C   0  0  0  0  0  0  0  0  0  0  0  0
   -2.8660  -17.6690   -2.0630 C   0  0  0  0  0  0  0  0  0  0  0  0
   -2.4860  -18.9650   -2.3400 C   0  0  0  0  0  0  0  0  0  0  0  0
   -2.4980  -19.4190   -3.6390 O   0  0  0  0  0  0  0  0  0  0  0  0
   -3.0450  -17.2290    4.8210 N   0  0  0  0  0  0  0  0  0  0  0  0
   -2.5210  -17.1120    6.1700 C   0  0  0  0  0  0  0  0  0  0  0  0
   -1.0180  -16.9800    6.2100 C   0  0  0  0  0  0  0  0  0  0  0  0
   -0.3650  -17.5830    7.0770 O   0  0  0  0  0  0  0  0  0  0  0  0
   -0.4540  -16.2080    5.2820 N   0  0  0  0  0  0  0  0  0  0  0  0
    0.9890  -16.0350    5.2300 C   0  0  2  0  0  0  0  0  0  0  0  0
    1.5180  -15.5260    6.5630 C   0  0  0  0  0  0  0  0  0  0  0  0
    0.9190  -14.6590    7.2030 O   0  0  0  0  0  0  0  0  0  0  0  0
    1.3920  -15.0770    4.1120 C   0  0  0  0  0  0  0  0  0  0  0  0
    1.0990  -15.5970    2.7340 C   0  0  0  0  0  0  0  0  0  0  0  0
    1.6110  -16.8140    2.2960 C   0  0  0  0  0  0  0  0  0  0  0  0
    0.3040  -14.8620    1.8720 C   0  0  0  0  0  0  0  0  0  0  0  0
    1.3290  -17.2760    1.0200 C   0  0  0  0  0  0  0  0  0  0  0  0
    0.0210  -15.3210    0.5980 C   0  0  0  0  0  0  0  0  0  0  0  0
    0.5330  -16.5280    0.1720 C   0  0  0  0  0  0  0  0  0  0  0  0
    2.6600  -16.0910    6.9690 N   0  0  0  0  0  0  0  0  0  0  0  0
    3.3190  -16.0270    8.2870 C   0  0  2  0  0  0  0  0  0  0  0  0
    4.8290  -16.1570    8.0930 C   0  0  0  0  0  0  0  0  0  0  0  0
    5.3050  -17.1610    7.5320 O   0  0  0  0  0  0  0  0  0  0  0  0
    2.7550  -17.0970    9.2450 C   0  0  0  0  0  0  0  0  0  0  0  0
    3.2730  -17.0910   10.6560 C   0  0  0  0  0  0  0  0  0  0  0  0
    2.4760  -18.0630   11.4430 C   0  0  0  0  0  0  0  0  0  0  0  0
    1.5930  -18.7160   10.9050 O   0  0  0  0  0  0  0  0  0  0  0  0
    2.6820  -18.0810   12.7360 N   0  0  0  0  0  0  0  0  0  0  0  0
    7.5570  -16.9790    9.3350 N   0  0  0  0  0  0  0  0  0  0  0  0
    8.3500  -18.1840    9.5740 C   0  0  2  0  0  0  0  0  0  0  0  0
    8.0290  -19.3170    8.6010 C   0  0  0  0  0  0  0  0  0  0  0  0
    8.4930  -20.4450    8.8170 O   0  0  0  0  0  0  0  0  0  0  0  0
    8.1580  -18.6850   11.0110 C   0  0  2  0  0  0  0  0  0  0  0  0
    6.7820  -19.0380   11.2170 O   0  0  0  0  0  0  0  0  0  0  0  0
    8.5540  -17.6190   12.0240 C   0  0  0  0  0  0  0  0  0  0  0  0
    7.2500  -19.0520    7.5530 N   0  0  0  0  0  0  0  0  0  0  0  0
    6.9330  -20.0850    6.5780 C   0  0  2  0  0  0  0  0  0  0  0  0
    8.1780  -20.4970    5.8080 C   0  0  0  0  0  0  0  0  0  0  0  0
    9.0940  -19.7010    5.5900 O   0  0  0  0  0  0  0  0  0  0  0  0
    5.8710  -19.5970    5.5930 C   0  0  0  0  0  0  0  0  0  0  0  0
    4.4640  -19.7240    6.1340 C   0  0  0  0  0  0  0  0  0  0  0  0
    4.2550  -20.1860    7.2520 O   0  0  0  0  0  0  0  0  0  0  0  0
    3.4810  -19.3280    5.3250 N   0  0  0  0  0  0  0  0  0  0  0  0
    8.2060  -21.7640    5.4010 N   0  0  0  0  0  0  0  0  0  0  0  0
    9.1710  -22.1890    4.4140 C   0  0  0  0  0  0  0  0  0  0  0  0
    8.9170  -21.5280    3.0730 C   0  0  0  0  0  0  0  0  0  0  0  0
    7.8340  -21.0100    2.8030 O   0  0  0  0  0  0  0  0  0  0  0  0
    9.9400  -21.5570    2.2130 N   0  0  0  0  0  0  0  0  0  0  0  0
    9.8870  -20.7880    0.9690 C   0  0  2  0  0  0  0  0  0  0  0  0
    8.6950  -21.2110    0.1180 C   0  0  0  0  0  0  0  0  0  0  0  0
    8.0180  -20.3700   -0.4870 O   0  0  0  0  0  0  0  0  0  0  0  0
   11.2110  -20.9260    0.1940 C   0  0  0  0  0  0  0  0  0  0  0  0
   11.1610  -20.1110   -1.0930 C   0  0  0  0  0  0  0  0  0  0  0  0
   12.3770  -20.4860    1.0590 C   0  0  0  0  0  0  0  0  0  0  0  0
    8.4150  -22.5160    0.0610 N   0  0  0  0  0  0  0  0  0  0  0  0
    7.2860  -22.9890   -0.7250 C   0  0  0  0  0  0  0  0  0  0  0  0
    5.9510  -22.4520   -0.2460 C   0  0  0  0  0  0  0  0  0  0  0  0
    5.0030  -22.3480   -1.0290 O   0  0  0  0  0  0  0  0  0  0  0  0
    5.8570  -22.1040    1.0370 N   0  0  0  0  0  0  0  0  0  0  0  0
    4.6460  -21.5450    1.6230 C   0  0  2  0  0  0  0  0  0  0  0  0
    4.6670  -20.0240    1.6940 C   0  0  0  0  0  0  0  0  0  0  0  0
    3.7080  -19.4290    2.1950 O   0  0  0  0  0  0  0  0  0  0  0  0
    4.4340  -22.1010    3.0340 C   0  0  0  0  0  0  0  0  0  0  0  0
    3.8010  -23.4710    3.1030 C   0  0  0  0  0  0  0  0  0  0  0  0
    4.5740  -24.6220    3.0200 C   0  0  0  0  0  0  0  0  0  0  0  0
    2.4330  -23.6140    3.2810 C   0  0  0  0  0  0  0  0  0  0  0  0
    3.9990  -25.8760    3.0980 C   0  0  0  0  0  0  0  0  0  0  0  0
    1.8490  -24.8630    3.3610 C   0  0  0  0  0  0  0  0  0  0  0  0
    2.6370  -25.9900    3.2690 C   0  0  0  0  0  0  0  0  0  0  0  0
    2.0590  -27.2360    3.3490 O   0  0  0  0  0  0  0  0  0  0  0  0
  2  1  1  6
  3  2  1  0
  4  3  2  0
  5  2  1  0
  6  5  1  0
  7  6  1  0
  8  7  1  0
  9  8  1  0
 10  9  1  0
 11  9  2  0
 13 12  1  1
 14 13  1  0
 15 14  2  0
 16 13  1  0
 17 16  1  0
 18 17  2  0
 19 17  1  0
 20 18  1  0
 21 19  2  0
 22 20  2  0
 22 21  1  0
 23 22  1  0
 25 24  1  1
 26 25  1  0
 27 26  2  0
 28 25  1  0
 29 28  1  0
 30 29  2  0
 31 29  1  0
 32 30  1  0
 33 31  2  0
 34 33  1  0
 34 32  2  0
 35 34  1  0
 37 36  1  1
 38 37  1  0
 39 38  2  0
 40 37  1  0
 41 40  1  0
 42 38  1  0
 43 42  1  0
 44 43  1  0
 45 44  2  0
 43 46  1  6
 47 46  1  0
 48 47  2  0
 49 47  1  0
 50 48  1  0
 51 49  2  0
 52 51  1  0
 52 50  2  0
 53 52  1  0
 54 44  1  0
 55 54  1  0
 56 55  1  0
 57 56  2  0
 58 56  1  0
 59 58  1  0
 60 59  1  0
 61 60  2  0
 59 62  1  6
 63 62  1  0
 64 63  2  0
 65 63  1  0
 66 64  1  0
 67 65  2  0
 68 66  2  0
 68 67  1  0
 69 60  1  0
 70 69  1  0
 71 70  1  0
 72 71  2  0
 70 73  1  1
 74 73  1  0
 75 74  1  0
 76 75  2  0
 77 75  1  0
 79 78  1  6
 80 79  1  0
 81 80  2  0
 82 79  1  0
 83 82  1  0
 82 84  1  1
 85 80  1  0
 86 85  1  0
 87 86  1  0
 88 87  2  0
 86 89  1  6
 90 89  1  0
 91 90  2  0
 92 90  1  0
 93 87  1  0
 94 93  1  0
 95 94  1  0
 96 95  2  0
 97 95  1  0
 98 97  1  1
 99 98  1  0
100 99  2  0
101 98  1  0
102101  1  0
103101  1  0
104 99  1  0
105104  1  0
106105  1  0
107106  2  0
108106  1  0
109108  1  0
110109  1  0
111110  2  0
109112  1  1
113112  1  0
114113  2  0
115113  1  0
116114  1  0
117115  2  0
118117  1  0
118116  2  0
119118  1  0
M  END
$$$$
