
     RDKit          3D

165164  0  0  0  0  0  0  0  0999 V2000
  137.3100  201.2600  118.1450 N   0  0  0  0  0  0  0  0  0  0  0  0
  137.3510  202.5190  117.4150 C   0  0  2  0  0  0  0  0  0  0  0  0
  138.7650  202.9610  117.0660 C   0  0  0  0  0  0  0  0  0  0  0  0
  138.9300  203.9900  116.4010 O   0  0  0  0  0  0  0  0  0  0  0  0
  136.6460  203.6230  118.2160 C   0  0  0  0  0  0  0  0  0  0  0  0
  137.0370  203.6970  119.6850 C   0  0  0  0  0  0  0  0  0  0  0  0
  136.1890  202.7930  120.5620 C   0  0  0  0  0  0  0  0  0  0  0  0
  135.4230  201.9750  120.0120 O   0  0  0  0  0  0  0  0  0  0  0  0
  136.2880  202.9040  121.8010 O   0  0  0  0  0  0  0  0  0  0  0  0
  139.7850  202.2190  117.4890 N   0  0  0  0  0  0  0  0  0  0  0  0
  141.1610  202.5270  117.1210 C   0  0  2  0  0  0  0  0  0  0  0  0
  141.7040  201.5880  116.0510 C   0  0  0  0  0  0  0  0  0  0  0  0
  142.6700  201.9560  115.3630 O   0  0  0  0  0  0  0  0  0  0  0  0
  142.0880  202.5230  118.3540 C   0  0  0  0  0  0  0  0  0  0  0  0
  141.6470  203.5830  119.3520 C   0  0  0  0  0  0  0  0  0  0  0  0
  142.1090  201.1510  119.0020 C   0  0  0  0  0  0  0  0  0  0  0  0
  138.6830  202.2860  112.6720 N   0  0  0  0  0  0  0  0  0  0  0  0
  138.3650  203.6940  112.5030 C   0  0  2  0  0  0  0  0  0  0  0  0
  137.8660  203.9580  111.0820 C   0  0  0  0  0  0  0  0  0  0  0  0
  137.8660  203.0810  110.2150 O   0  0  0  0  0  0  0  0  0  0  0  0
  139.5840  204.5550  112.8250 C   0  0  0  0  0  0  0  0  0  0  0  0
  137.4370  205.1980  110.8450 N   0  0  0  0  0  0  0  0  0  0  0  0
  136.8860  205.5980  109.5530 C   0  0  2  0  0  0  0  0  0  0  0  0
  137.9190  206.3170  108.6900 C   0  0  0  0  0  0  0  0  0  0  0  0
  138.2010  205.8870  107.5680 O   0  0  0  0  0  0  0  0  0  0  0  0
  135.6520  206.4880  109.7590 C   0  0  2  0  0  0  0  0  0  0  0  0
  136.0240  207.6640  110.4870 O   0  0  0  0  0  0  0  0  0  0  0  0
  134.5780  205.7380  110.5320 C   0  0  0  0  0  0  0  0  0  0  0  0
  138.4890  207.4090  109.1950 N   0  0  0  0  0  0  0  0  0  0  0  0
  139.4470  208.2030  108.4410 C   0  0  2  0  0  0  0  0  0  0  0  0
  140.5620  208.6750  109.3610 C   0  0  0  0  0  0  0  0  0  0  0  0
  140.3440  208.9290  110.5490 O   0  0  0  0  0  0  0  0  0  0  0  0
  138.7820  209.4180  107.7750 C   0  0  0  0  0  0  0  0  0  0  0  0
  137.7310  209.0750  106.7320 C   0  0  0  0  0  0  0  0  0  0  0  0
  137.0880  210.3300  106.1650 C   0  0  0  0  0  0  0  0  0  0  0  0
  136.0560  210.0210  105.1800 N   0  0  0  0  0  0  0  0  0  0  0  0
  136.2790  209.9040  103.8750 C   0  0  0  0  0  0  0  0  0  0  0  0
  135.2790  209.6200  103.0520 N   0  0  0  0  0  0  0  0  0  0  0  0
  137.5020  210.0720  103.3920 N   0  0  0  0  0  0  0  0  0  0  0  0
  141.7600  208.7900  108.7980 N   0  0  0  0  0  0  0  0  0  0  0  0
  142.9210  209.3410  109.4810 C   0  0  2  0  0  0  0  0  0  0  0  0
  143.2540  210.7070  108.8870 C   0  0  0  0  0  0  0  0  0  0  0  0
  142.5490  211.2220  108.0150 O   0  0  0  0  0  0  0  0  0  0  0  0
  144.1090  208.3830  109.3850 C   0  0  0  0  0  0  0  0  0  0  0  0
  143.9260  207.1060  110.1570 C   0  0  0  0  0  0  0  0  0  0  0  0
  143.0120  207.0350  111.1970 C   0  0  0  0  0  0  0  0  0  0  0  0
  144.6680  205.9800  109.8460 C   0  0  0  0  0  0  0  0  0  0  0  0
  142.8420  205.8620  111.9090 C   0  0  0  0  0  0  0  0  0  0  0  0
  144.5020  204.8040  110.5560 C   0  0  0  0  0  0  0  0  0  0  0  0
  143.5880  204.7460  111.5880 C   0  0  0  0  0  0  0  0  0  0  0  0
  144.3430  211.3030  109.3750 N   0  0  0  0  0  0  0  0  0  0  0  0
  144.7370  212.6440  108.9600 C   0  0  2  0  0  0  0  0  0  0  0  0
  146.0100  212.6440  108.1230 C   0  0  0  0  0  0  0  0  0  0  0  0
  145.9910  213.0960  106.9740 O   0  0  0  0  0  0  0  0  0  0  0  0
  144.9110  213.5430  110.1920 C   0  0  0  0  0  0  0  0  0  0  0  0
  147.1140  212.1360  108.6600 N   0  0  0  0  0  0  0  0  0  0  0  0
  148.3980  212.1460  107.9670 C   0  0  2  0  0  0  0  0  0  0  0  0
  149.3670  211.2640  108.7460 C   0  0  0  0  0  0  0  0  0  0  0  0
  148.9950  210.6100  109.7250 O   0  0  0  0  0  0  0  0  0  0  0  0
  148.9470  213.5660  107.8120 C   0  0  0  0  0  0  0  0  0  0  0  0
  150.1740  213.5590  107.1050 O   0  0  0  0  0  0  0  0  0  0  0  0
  150.9480  213.9450  111.7600 N   0  0  0  0  0  0  0  0  0  0  0  0
  149.9610  214.3020  112.7760 C   0  0  2  0  0  0  0  0  0  0  0  0
  149.2210  213.0230  113.1610 C   0  0  0  0  0  0  0  0  0  0  0  0
  148.1740  212.6980  112.5990 O   0  0  0  0  0  0  0  0  0  0  0  0
  149.0050  215.3770  112.2650 C   0  0  0  0  0  0  0  0  0  0  0  0
  149.7740  212.3000  114.1290 N   0  0  0  0  0  0  0  0  0  0  0  0
  149.2290  211.0290  114.5810 C   0  0  2  0  0  0  0  0  0  0  0  0
  148.6310  211.1800  115.9730 C   0  0  0  0  0  0  0  0  0  0  0  0
  149.1770  211.8920  116.8220 O   0  0  0  0  0  0  0  0  0  0  0  0
  150.3090  209.9440  114.5890 C   0  0  0  0  0  0  0  0  0  0  0  0
  151.6150  210.4000  115.1670 C   0  0  0  0  0  0  0  0  0  0  0  0
  152.6560  210.9670  114.4910 C   0  0  0  0  0  0  0  0  0  0  0  0
  152.0190  210.3280  116.5390 C   0  0  0  0  0  0  0  0  0  0  0  0
  153.6830  211.2530  115.3570 N   0  0  0  0  0  0  0  0  0  0  0  0
  153.3180  210.8690  116.6210 C   0  0  0  0  0  0  0  0  0  0  0  0
  151.4110  209.8580  117.7080 C   0  0  0  0  0  0  0  0  0  0  0  0
  154.0180  210.9550  117.8230 C   0  0  0  0  0  0  0  0  0  0  0  0
  152.1080  209.9440  118.8990 C   0  0  0  0  0  0  0  0  0  0  0  0
  153.3980  210.4880  118.9470 C   0  0  0  0  0  0  0  0  0  0  0  0
  147.5050  210.5100  116.1990 N   0  0  0  0  0  0  0  0  0  0  0  0
  146.8570  210.5280  117.5000 C   0  0  2  0  0  0  0  0  0  0  0  0
  147.5190  209.5230  118.4370 C   0  0  0  0  0  0  0  0  0  0  0  0
  148.0180  208.4780  118.0100 O   0  0  0  0  0  0  0  0  0  0  0  0
  145.3660  210.2160  117.3620 C   0  0  0  0  0  0  0  0  0  0  0  0
  144.6170  210.3420  118.6740 C   0  0  0  0  0  0  0  0  0  0  0  0
  145.0570  211.0380  119.5890 O   0  0  0  0  0  0  0  0  0  0  0  0
  143.4780  209.6680  118.7720 N   0  0  0  0  0  0  0  0  0  0  0  0
  147.5190  209.8520  119.7270 N   0  0  0  0  0  0  0  0  0  0  0  0
  148.1290  209.0140  120.7570 C   0  0  2  0  0  0  0  0  0  0  0  0
  147.0680  208.7200  121.8140 C   0  0  0  0  0  0  0  0  0  0  0  0
  146.8100  209.5480  122.6930 O   0  0  0  0  0  0  0  0  0  0  0  0
  149.3510  209.6960  121.3660 C   0  0  0  0  0  0  0  0  0  0  0  0
  150.2440  208.7740  122.1800 C   0  0  0  0  0  0  0  0  0  0  0  0
  151.4700  209.5120  122.6910 C   0  0  0  0  0  0  0  0  0  0  0  0
  152.4470  208.6120  123.2970 N   0  0  0  0  0  0  0  0  0  0  0  0
  153.4430  208.0350  122.6320 C   0  0  0  0  0  0  0  0  0  0  0  0
  153.5950  208.2630  121.3340 N   0  0  0  0  0  0  0  0  0  0  0  0
  154.2870  207.2300  123.2620 N   0  0  0  0  0  0  0  0  0  0  0  0
  146.4570  207.5410  121.7270 N   0  0  0  0  0  0  0  0  0  0  0  0
  145.4110  207.1370  122.6560 C   0  0  2  0  0  0  0  0  0  0  0  0
  146.0300  206.4470  123.8650 C   0  0  0  0  0  0  0  0  0  0  0  0
  146.8950  205.5770  123.7180 O   0  0  0  0  0  0  0  0  0  0  0  0
  144.4110  206.2060  121.9690 C   0  0  0  0  0  0  0  0  0  0  0  0
  143.3170  205.6820  122.8870 C   0  0  0  0  0  0  0  0  0  0  0  0
  142.4610  206.8130  123.4320 C   0  0  0  0  0  0  0  0  0  0  0  0
  141.7000  207.5140  122.3190 C   0  0  0  0  0  0  0  0  0  0  0  0
  140.7910  206.5780  121.6020 N   0  0  0  0  0  0  0  0  0  0  0  0
  148.3150  206.0090  115.0470 N   0  0  0  0  0  0  0  0  0  0  0  0
  147.7680  205.7050  113.7330 C   0  0  2  0  0  0  0  0  0  0  0  0
  148.3240  206.6670  112.6910 C   0  0  0  0  0  0  0  0  0  0  0  0
  148.3920  207.8790  112.9210 O   0  0  0  0  0  0  0  0  0  0  0  0
  146.2400  205.7810  113.7500 C   0  0  0  0  0  0  0  0  0  0  0  0
  145.6930  204.8560  114.6740 O   0  0  0  0  0  0  0  0  0  0  0  0
  143.4290  215.4440   98.3150 N   0  0  0  0  0  0  0  0  0  0  0  0
  144.2940  216.0480   99.3210 C   0  0  2  0  0  0  0  0  0  0  0  0
  143.7650  215.8480  100.7370 C   0  0  0  0  0  0  0  0  0  0  0  0
  144.0340  216.6680  101.6220 O   0  0  0  0  0  0  0  0  0  0  0  0
  144.4860  217.5360   99.0300 C   0  0  0  0  0  0  0  0  0  0  0  0
  145.2150  217.8180   97.7360 C   0  0  0  0  0  0  0  0  0  0  0  0
  146.6020  217.9000   97.7010 C   0  0  0  0  0  0  0  0  0  0  0  0
  144.5190  218.0010   96.5480 C   0  0  0  0  0  0  0  0  0  0  0  0
  147.2730  218.1570   96.5210 C   0  0  0  0  0  0  0  0  0  0  0  0
  145.1830  218.2590   95.3630 C   0  0  0  0  0  0  0  0  0  0  0  0
  146.5590  218.3360   95.3560 C   0  0  0  0  0  0  0  0  0  0  0  0
  147.2240  218.5920   94.1790 O   0  0  0  0  0  0  0  0  0  0  0  0
  143.0090  214.7710  100.9680 N   0  0  0  0  0  0  0  0  0  0  0  0
  142.5010  214.5020  102.3100 C   0  0  2  0  0  0  0  0  0  0  0  0
  143.6330  214.1410  103.2650 C   0  0  0  0  0  0  0  0  0  0  0  0
  143.6440  214.5850  104.4200 O   0  0  0  0  0  0  0  0  0  0  0  0
  141.4590  213.3860  102.2630 C   0  0  0  0  0  0  0  0  0  0  0  0
  140.8030  213.1430  103.6070 C   0  0  0  0  0  0  0  0  0  0  0  0
  141.2790  212.3390  104.4070 O   0  0  0  0  0  0  0  0  0  0  0  0
  139.7020  213.8400  103.8620 N   0  0  0  0  0  0  0  0  0  0  0  0
  144.5890  213.3420  102.8040 N   0  0  0  0  0  0  0  0  0  0  0  0
  145.7530  212.9720  103.5930 C   0  0  2  0  0  0  0  0  0  0  0  0
  146.9340  213.8640  103.2310 C   0  0  0  0  0  0  0  0  0  0  0  0
  147.0500  214.3470  102.1010 O   0  0  0  0  0  0  0  0  0  0  0  0
  146.1200  211.5030  103.3710 C   0  0  0  0  0  0  0  0  0  0  0  0
  145.0380  210.5300  103.7870 C   0  0  0  0  0  0  0  0  0  0  0  0
  144.1710  210.8280  104.8300 C   0  0  0  0  0  0  0  0  0  0  0  0
  144.8810  209.3140  103.1330 C   0  0  0  0  0  0  0  0  0  0  0  0
  143.1820  209.9410  105.2120 C   0  0  0  0  0  0  0  0  0  0  0  0
  143.8940  208.4230  103.5070 C   0  0  0  0  0  0  0  0  0  0  0  0
  143.0470  208.7410  104.5480 C   0  0  0  0  0  0  0  0  0  0  0  0
  142.0640  207.8570  104.9240 O   0  0  0  0  0  0  0  0  0  0  0  0
  147.8130  214.0810  104.2030 N   0  0  0  0  0  0  0  0  0  0  0  0
  148.9730  214.9430  104.0400 C   0  0  2  0  0  0  0  0  0  0  0  0
  150.2550  214.1210  104.0870 C   0  0  0  0  0  0  0  0  0  0  0  0
  150.2540  212.9330  104.4170 O   0  0  0  0  0  0  0  0  0  0  0  0
  149.0010  216.0360  105.1180 C   0  0  0  0  0  0  0  0  0  0  0  0
  147.9080  217.1120  105.1000 C   0  0  0  0  0  0  0  0  0  0  0  0
  147.6490  217.6040  103.6820 C   0  0  0  0  0  0  0  0  0  0  0  0
  146.6190  216.6290  105.7590 C   0  0  0  0  0  0  0  0  0  0  0  0
  155.6250  214.9670  118.2030 N   0  0  0  0  0  0  0  0  0  0  0  0
  154.9180  215.4310  117.0190 C   0  0  2  0  0  0  0  0  0  0  0  0
  155.4630  216.7840  116.5770 C   0  0  0  0  0  0  0  0  0  0  0  0
  156.0110  217.5480  117.3770 O   0  0  0  0  0  0  0  0  0  0  0  0
  153.4160  215.5200  117.2940 C   0  0  0  0  0  0  0  0  0  0  0  0
  152.5480  215.5130  116.0450 C   0  0  0  0  0  0  0  0  0  0  0  0
  151.2800  214.7020  116.2620 C   0  0  0  0  0  0  0  0  0  0  0  0
  150.5160  215.1700  117.4150 N   0  0  0  0  0  0  0  0  0  0  0  0
  149.5050  216.0290  117.3430 C   0  0  0  0  0  0  0  0  0  0  0  0
  148.8680  216.3970  118.4450 N   0  0  0  0  0  0  0  0  0  0  0  0
  149.1300  216.5190  116.1690 N   0  0  0  0  0  0  0  0  0  0  0  0
  2  1  1  1
  3  2  1  0
  4  3  2  0
  5  2  1  0
  6  5  1  0
  7  6  1  0
  8  7  2  0
  9  7  1  0
 10  3  1  0
 11 10  1  1
 12 11  1  0
 13 12  2  0
 14 11  1  0
 15 14  1  0
 16 14  1  0
 18 17  1  0
 19 18  1  0
 20 19  2  0
 18 21  1  6
 22 19  1  0
 23 22  1  1
 24 23  1  0
 25 24  2  0
 26 23  1  0
 27 26  1  0
 26 28  1  1
 29 24  1  0
 30 29  1  0
 31 30  1  0
 32 31  2  0
 30 33  1  1
 34 33  1  0
 35 34  1  0
 36 35  1  0
 37 36  1  0
 38 37  1  0
 39 37  2  0
 40 31  1  0
 41 40  1  0
 42 41  1  0
 43 42  2  0
 41 44  1  6
 45 44  1  0
 46 45  2  0
 47 45  1  0
 48 46  1  0
 49 47  2  0
 50 49  1  0
 50 48  2  0
 51 42  1  0
 52 51  1  0
 53 52  1  0
 54 53  2  0
 52 55  1  1
 56 53  1  0
 57 56  1  0
 58 57  1  0
 59 58  2  0
 57 60  1  1
 61 60  1  0
 63 62  1  0
 64 63  1  0
 65 64  2  0
 63 66  1  6
 67 64  1  0
 68 67  1  0
 69 68  1  0
 70 69  2  0
 68 71  1  1
 72 71  1  0
 73 72  2  0
 74 72  1  0
 75 73  1  0
 76 74  2  0
 76 75  1  0
 77 74  1  0
 78 76  1  0
 79 77  2  0
 80 79  1  0
 80 78  2  0
 81 69  1  0
 82 81  1  0
 83 82  1  0
 84 83  2  0
 82 85  1  6
 86 85  1  0
 87 86  2  0
 88 86  1  0
 89 83  1  0
 90 89  1  0
 91 90  1  0
 92 91  2  0
 90 93  1  1
 94 93  1  0
 95 94  1  0
 96 95  1  0
 97 96  1  0
 98 97  1  0
 99 97  2  0
100 91  1  0
101100  1  0
102101  1  0
103102  2  0
101104  1  6
105104  1  0
106105  1  0
107106  1  0
108107  1  0
110109  1  1
111110  1  0
112111  2  0
113110  1  0
114113  1  0
116115  1  6
117116  1  0
118117  2  0
119116  1  0
120119  1  0
121120  2  0
122120  1  0
123121  1  0
124122  2  0
125124  1  0
125123  2  0
126125  1  0
127117  1  0
128127  1  0
129128  1  0
130129  2  0
128131  1  6
132131  1  0
133132  2  0
134132  1  0
135129  1  0
136135  1  0
137136  1  0
138137  2  0
136139  1  6
140139  1  0
141140  2  0
142140  1  0
143141  1  0
144142  2  0
145144  1  0
145143  2  0
146145  1  0
147137  1  0
148147  1  0
149148  1  0
150149  2  0
148151  1  1
152151  1  0
153152  1  0
154152  1  0
156155  1  1
157156  1  0
158157  2  0
159156  1  0
160159  1  0
161160  1  0
162161  1  0
163162  1  0
164163  1  0
165163  2  0
M  END
$$$$
