
     RDKit          3D

165164  0  0  0  0  0  0  0  0999 V2000
  210.7860  257.7960  285.3840 N   0  0  0  0  0  0  0  0  0  0  0  0
  210.5320  258.6340  284.2200 C   0  0  2  0  0  0  0  0  0  0  0  0
  211.7530  258.7590  283.3160 C   0  0  0  0  0  0  0  0  0  0  0  0
  211.6780  259.4420  282.2880 O   0  0  0  0  0  0  0  0  0  0  0  0
  210.0510  260.0280  284.6450 C   0  0  0  0  0  0  0  0  0  0  0  0
  210.5670  260.4980  285.9970 C   0  0  0  0  0  0  0  0  0  0  0  0
  209.6840  260.0490  287.1480 C   0  0  0  0  0  0  0  0  0  0  0  0
  208.7650  259.2360  286.9120 O   0  0  0  0  0  0  0  0  0  0  0  0
  209.9060  260.5110  288.2860 O   0  0  0  0  0  0  0  0  0  0  0  0
  212.8680  258.1250  283.6670 N   0  0  0  0  0  0  0  0  0  0  0  0
  214.0350  258.0900  282.7960 C   0  0  2  0  0  0  0  0  0  0  0  0
  214.3310  256.6980  282.2580 C   0  0  0  0  0  0  0  0  0  0  0  0
  215.0450  256.5810  281.2490 O   0  0  0  0  0  0  0  0  0  0  0  0
  215.2800  258.6610  283.5060 C   0  0  0  0  0  0  0  0  0  0  0  0
  215.0450  260.1110  283.9040 C   0  0  0  0  0  0  0  0  0  0  0  0
  215.6340  257.8210  284.7200 C   0  0  0  0  0  0  0  0  0  0  0  0
  210.3900  256.0090  280.1550 N   0  0  0  0  0  0  0  0  0  0  0  0
  209.8960  257.1620  279.4210 C   0  0  2  0  0  0  0  0  0  0  0  0
  209.1750  256.7130  278.1500 C   0  0  0  0  0  0  0  0  0  0  0  0
  209.0610  255.5220  277.8460 O   0  0  0  0  0  0  0  0  0  0  0  0
  211.0440  258.1130  279.0940 C   0  0  0  0  0  0  0  0  0  0  0  0
  208.6850  257.6920  277.3910 N   0  0  0  0  0  0  0  0  0  0  0  0
  207.9270  257.4310  276.1740 C   0  0  2  0  0  0  0  0  0  0  0  0
  208.7690  257.5820  274.9130 C   0  0  0  0  0  0  0  0  0  0  0  0
  208.8140  256.6660  274.0880 O   0  0  0  0  0  0  0  0  0  0  0  0
  206.7110  258.3640  276.0980 C   0  0  2  0  0  0  0  0  0  0  0  0
  207.1520  259.7270  276.0900 O   0  0  0  0  0  0  0  0  0  0  0  0
  205.7940  258.1400  277.2900 C   0  0  0  0  0  0  0  0  0  0  0  0
  209.4350  258.7200  274.7430 N   0  0  0  0  0  0  0  0  0  0  0  0
  210.1910  259.0070  273.5340 C   0  0  2  0  0  0  0  0  0  0  0  0
  211.5240  259.6650  273.8670 C   0  0  0  0  0  0  0  0  0  0  0  0
  211.6300  260.4590  274.8060 O   0  0  0  0  0  0  0  0  0  0  0  0
  209.3950  259.9180  272.5930 C   0  0  0  0  0  0  0  0  0  0  0  0
  208.1000  259.3140  272.0720 C   0  0  0  0  0  0  0  0  0  0  0  0
  207.3330  260.3120  271.2200 C   0  0  0  0  0  0  0  0  0  0  0  0
  206.0910  259.7490  270.6980 N   0  0  0  0  0  0  0  0  0  0  0  0
  205.9880  259.1230  269.5300 C   0  0  0  0  0  0  0  0  0  0  0  0
  204.8180  258.6430  269.1330 N   0  0  0  0  0  0  0  0  0  0  0  0
  207.0560  258.9770  268.7580 N   0  0  0  0  0  0  0  0  0  0  0  0
  212.5390  259.3220  273.0830 N   0  0  0  0  0  0  0  0  0  0  0  0
  213.8330  259.9910  273.0930 C   0  0  2  0  0  0  0  0  0  0  0  0
  213.9780  260.7740  271.7880 C   0  0  0  0  0  0  0  0  0  0  0  0
  213.0820  260.7720  270.9390 O   0  0  0  0  0  0  0  0  0  0  0  0
  214.9670  258.9820  273.2870 C   0  0  0  0  0  0  0  0  0  0  0  0
  214.9460  258.2900  274.6200 C   0  0  0  0  0  0  0  0  0  0  0  0
  214.3070  258.8660  275.7060 C   0  0  0  0  0  0  0  0  0  0  0  0
  215.5690  257.0650  274.7880 C   0  0  0  0  0  0  0  0  0  0  0  0
  214.2870  258.2310  276.9330 C   0  0  0  0  0  0  0  0  0  0  0  0
  215.5530  256.4250  276.0130 C   0  0  0  0  0  0  0  0  0  0  0  0
  214.9110  257.0080  277.0860 C   0  0  0  0  0  0  0  0  0  0  0  0
  215.1140  261.4520  271.6250 N   0  0  0  0  0  0  0  0  0  0  0  0
  215.3260  262.3060  270.4630 C   0  0  2  0  0  0  0  0  0  0  0  0
  216.3610  261.7400  269.5000 C   0  0  0  0  0  0  0  0  0  0  0  0
  216.0350  261.4660  268.3410 O   0  0  0  0  0  0  0  0  0  0  0  0
  215.7390  263.7140  270.9130 C   0  0  0  0  0  0  0  0  0  0  0  0
  217.5980  261.5350  269.9530 N   0  0  0  0  0  0  0  0  0  0  0  0
  218.6630  261.0800  269.0660 C   0  0  2  0  0  0  0  0  0  0  0  0
  219.9230  260.7130  269.8360 C   0  0  0  0  0  0  0  0  0  0  0  0
  219.9360  260.7270  271.0710 O   0  0  0  0  0  0  0  0  0  0  0  0
  218.9940  262.1530  268.0260 C   0  0  0  0  0  0  0  0  0  0  0  0
  220.0400  261.7210  267.1760 O   0  0  0  0  0  0  0  0  0  0  0  0
  221.8910  264.5310  270.3080 N   0  0  0  0  0  0  0  0  0  0  0  0
  221.2440  265.4100  271.2790 C   0  0  2  0  0  0  0  0  0  0  0  0
  220.6460  264.5210  272.3650 C   0  0  0  0  0  0  0  0  0  0  0  0
  219.4760  264.1360  272.2960 O   0  0  0  0  0  0  0  0  0  0  0  0
  220.1830  266.2860  270.6150 C   0  0  0  0  0  0  0  0  0  0  0  0
  221.4560  264.1970  273.3680 N   0  0  0  0  0  0  0  0  0  0  0  0
  221.0390  263.3160  274.4500 C   0  0  2  0  0  0  0  0  0  0  0  0
  220.6980  264.1330  275.6890 C   0  0  0  0  0  0  0  0  0  0  0  0
  221.4060  265.0870  276.0280 O   0  0  0  0  0  0  0  0  0  0  0  0
  222.1370  262.2990  274.7660 C   0  0  0  0  0  0  0  0  0  0  0  0
  223.5190  262.8750  274.7460 C   0  0  0  0  0  0  0  0  0  0  0  0
  224.3610  262.9460  273.6750 C   0  0  0  0  0  0  0  0  0  0  0  0
  224.2240  263.4580  275.8490 C   0  0  0  0  0  0  0  0  0  0  0  0
  225.5450  263.5380  274.0410 N   0  0  0  0  0  0  0  0  0  0  0  0
  225.4860  263.8620  275.3710 C   0  0  0  0  0  0  0  0  0  0  0  0
  223.9110  263.6770  277.1940 C   0  0  0  0  0  0  0  0  0  0  0  0
  226.4340  264.4730  276.1890 C   0  0  0  0  0  0  0  0  0  0  0  0
  224.8520  264.2850  278.0040 C   0  0  0  0  0  0  0  0  0  0  0  0
  226.0990  264.6750  277.4990 C   0  0  0  0  0  0  0  0  0  0  0  0
  219.6080  263.7610  276.3550 N   0  0  0  0  0  0  0  0  0  0  0  0
  219.2110  264.4350  277.5800 C   0  0  2  0  0  0  0  0  0  0  0  0
  220.1400  264.0440  278.7260 C   0  0  0  0  0  0  0  0  0  0  0  0
  220.6850  262.9380  278.7730 O   0  0  0  0  0  0  0  0  0  0  0  0
  217.7640  264.0930  277.9340 C   0  0  0  0  0  0  0  0  0  0  0  0
  217.2730  264.8340  279.1620 C   0  0  0  0  0  0  0  0  0  0  0  0
  217.7320  265.9370  279.4610 O   0  0  0  0  0  0  0  0  0  0  0  0
  216.3390  264.2280  279.8860 N   0  0  0  0  0  0  0  0  0  0  0  0
  220.3170  264.9740  279.6620 N   0  0  0  0  0  0  0  0  0  0  0  0
  221.1650  264.7530  280.8310 C   0  0  2  0  0  0  0  0  0  0  0  0
  220.3790  265.1670  282.0660 C   0  0  0  0  0  0  0  0  0  0  0  0
  220.2560  266.3610  282.3540 O   0  0  0  0  0  0  0  0  0  0  0  0
  222.4740  265.5350  280.7230 C   0  0  0  0  0  0  0  0  0  0  0  0
  223.5310  265.1280  281.7360 C   0  0  0  0  0  0  0  0  0  0  0  0
  224.8400  265.8560  281.4790 C   0  0  0  0  0  0  0  0  0  0  0  0
  225.9390  265.3130  282.2720 N   0  0  0  0  0  0  0  0  0  0  0  0
  226.7240  264.3180  281.8740 C   0  0  0  0  0  0  0  0  0  0  0  0
  226.5310  263.7520  280.6910 N   0  0  0  0  0  0  0  0  0  0  0  0
  227.7030  263.8860  282.6570 N   0  0  0  0  0  0  0  0  0  0  0  0
  219.8510  264.1860  282.7910 N   0  0  0  0  0  0  0  0  0  0  0  0
  219.0540  264.4310  283.9850 C   0  0  2  0  0  0  0  0  0  0  0  0
  219.9590  264.4660  285.2090 C   0  0  0  0  0  0  0  0  0  0  0  0
  220.7640  263.5520  285.4180 O   0  0  0  0  0  0  0  0  0  0  0  0
  217.9780  263.3570  284.1540 C   0  0  0  0  0  0  0  0  0  0  0  0
  217.1990  263.4640  285.4530 C   0  0  0  0  0  0  0  0  0  0  0  0
  216.4300  264.7710  285.5350 C   0  0  0  0  0  0  0  0  0  0  0  0
  215.3030  264.8090  284.5190 C   0  0  0  0  0  0  0  0  0  0  0  0
  214.3190  263.7170  284.7540 N   0  0  0  0  0  0  0  0  0  0  0  0
  220.2400  259.5780  277.9520 N   0  0  0  0  0  0  0  0  0  0  0  0
  219.3910  258.7280  277.1300 C   0  0  2  0  0  0  0  0  0  0  0  0
  219.6380  258.9990  275.6520 C   0  0  0  0  0  0  0  0  0  0  0  0
  219.7420  260.1550  275.2300 O   0  0  0  0  0  0  0  0  0  0  0  0
  217.9150  258.9540  277.4620 C   0  0  0  0  0  0  0  0  0  0  0  0
  217.6520  258.6840  278.8270 O   0  0  0  0  0  0  0  0  0  0  0  0
  211.5930  259.4480  260.4160 N   0  0  0  0  0  0  0  0  0  0  0  0
  212.6230  260.4150  260.7660 C   0  0  2  0  0  0  0  0  0  0  0  0
  212.3770  261.0570  262.1250 C   0  0  0  0  0  0  0  0  0  0  0  0
  212.8860  262.1520  262.3890 O   0  0  0  0  0  0  0  0  0  0  0  0
  212.7290  261.4880  259.6820 C   0  0  0  0  0  0  0  0  0  0  0  0
  213.1350  260.9440  258.3320 C   0  0  0  0  0  0  0  0  0  0  0  0
  214.4730  260.7600  258.0110 C   0  0  0  0  0  0  0  0  0  0  0  0
  212.1810  260.6100  257.3800 C   0  0  0  0  0  0  0  0  0  0  0  0
  214.8500  260.2610  256.7800 C   0  0  0  0  0  0  0  0  0  0  0  0
  212.5480  260.1110  256.1450 C   0  0  0  0  0  0  0  0  0  0  0  0
  213.8830  259.9380  255.8510 C   0  0  0  0  0  0  0  0  0  0  0  0
  214.2550  259.4420  254.6230 O   0  0  0  0  0  0  0  0  0  0  0  0
  211.5970  260.4010  262.9890 N   0  0  0  0  0  0  0  0  0  0  0  0
  211.3930  260.9160  264.3390 C   0  0  2  0  0  0  0  0  0  0  0  0
  212.7080  260.9750  265.1030 C   0  0  0  0  0  0  0  0  0  0  0  0
  212.9750  261.9440  265.8240 O   0  0  0  0  0  0  0  0  0  0  0  0
  210.3750  260.0500  265.0800 C   0  0  0  0  0  0  0  0  0  0  0  0
  210.0140  260.6100  266.4400 C   0  0  0  0  0  0  0  0  0  0  0  0
  210.6590  260.3020  267.4420 O   0  0  0  0  0  0  0  0  0  0  0  0
  208.9780  261.4380  266.4820 N   0  0  0  0  0  0  0  0  0  0  0  0
  213.5430  259.9530  264.9560 N   0  0  0  0  0  0  0  0  0  0  0  0
  214.8760  259.9540  265.5320 C   0  0  2  0  0  0  0  0  0  0  0  0
  215.8870  260.4630  264.5070 C   0  0  0  0  0  0  0  0  0  0  0  0
  215.6420  260.4640  263.2990 O   0  0  0  0  0  0  0  0  0  0  0  0
  215.2520  258.5530  266.0140 C   0  0  0  0  0  0  0  0  0  0  0  0
  214.3070  257.9900  267.0530 C   0  0  0  0  0  0  0  0  0  0  0  0
  213.6410  258.8260  267.9400 C   0  0  0  0  0  0  0  0  0  0  0  0
  214.0790  256.6240  267.1440 C   0  0  0  0  0  0  0  0  0  0  0  0
  212.7760  258.3160  268.8900 C   0  0  0  0  0  0  0  0  0  0  0  0
  213.2150  256.1050  268.0900 C   0  0  0  0  0  0  0  0  0  0  0  0
  212.5670  256.9550  268.9600 C   0  0  0  0  0  0  0  0  0  0  0  0
  211.7070  256.4430  269.9040 O   0  0  0  0  0  0  0  0  0  0  0  0
  217.0390  260.9010  265.0040 N   0  0  0  0  0  0  0  0  0  0  0  0
  218.0820  261.4760  264.1680 C   0  0  2  0  0  0  0  0  0  0  0  0
  219.3840  260.7150  264.3890 C   0  0  0  0  0  0  0  0  0  0  0  0
  219.4770  259.8280  265.2430 O   0  0  0  0  0  0  0  0  0  0  0  0
  218.2720  262.9730  264.4580 C   0  0  0  0  0  0  0  0  0  0  0  0
  217.1230  263.9390  264.1480 C   0  0  0  0  0  0  0  0  0  0  0  0
  216.4840  263.6200  262.8030 C   0  0  0  0  0  0  0  0  0  0  0  0
  216.0790  263.9640  265.2610 C   0  0  0  0  0  0  0  0  0  0  0  0
  227.6960  267.9630  274.1140 N   0  0  0  0  0  0  0  0  0  0  0  0
  226.6500  267.8820  273.1060 C   0  0  2  0  0  0  0  0  0  0  0  0
  226.9540  268.8620  271.9800 C   0  0  0  0  0  0  0  0  0  0  0  0
  227.4570  269.9640  272.2220 O   0  0  0  0  0  0  0  0  0  0  0  0
  225.2790  268.1770  273.7210 C   0  0  0  0  0  0  0  0  0  0  0  0
  224.1200  267.5090  273.0050 C   0  0  0  0  0  0  0  0  0  0  0  0
  223.0220  267.1250  273.9830 C   0  0  0  0  0  0  0  0  0  0  0  0
  222.4480  268.2840  274.6580 N   0  0  0  0  0  0  0  0  0  0  0  0
  221.3140  268.8730  274.2960 C   0  0  0  0  0  0  0  0  0  0  0  0
  220.8660  269.9240  274.9680 N   0  0  0  0  0  0  0  0  0  0  0  0
  220.6250  268.4090  273.2620 N   0  0  0  0  0  0  0  0  0  0  0  0
  2  1  1  1
  3  2  1  0
  4  3  2  0
  5  2  1  0
  6  5  1  0
  7  6  1  0
  8  7  2  0
  9  7  1  0
 10  3  1  0
 11 10  1  1
 12 11  1  0
 13 12  2  0
 14 11  1  0
 15 14  1  0
 16 14  1  0
 18 17  1  0
 19 18  1  0
 20 19  2  0
 18 21  1  6
 22 19  1  0
 23 22  1  1
 24 23  1  0
 25 24  2  0
 26 23  1  0
 27 26  1  0
 26 28  1  1
 29 24  1  0
 30 29  1  0
 31 30  1  0
 32 31  2  0
 30 33  1  6
 34 33  1  0
 35 34  1  0
 36 35  1  0
 37 36  1  0
 38 37  1  0
 39 37  2  0
 40 31  1  0
 41 40  1  0
 42 41  1  0
 43 42  2  0
 41 44  1  6
 45 44  1  0
 46 45  2  0
 47 45  1  0
 48 46  1  0
 49 47  2  0
 50 49  1  0
 50 48  2  0
 51 42  1  0
 52 51  1  0
 53 52  1  0
 54 53  2  0
 52 55  1  1
 56 53  1  0
 57 56  1  0
 58 57  1  0
 59 58  2  0
 57 60  1  6
 61 60  1  0
 63 62  1  0
 64 63  1  0
 65 64  2  0
 63 66  1  6
 67 64  1  0
 68 67  1  0
 69 68  1  0
 70 69  2  0
 68 71  1  1
 72 71  1  0
 73 72  2  0
 74 72  1  0
 75 73  1  0
 76 75  1  0
 76 74  2  0
 77 74  1  0
 78 76  1  0
 79 77  2  0
 80 78  2  0
 80 79  1  0
 81 69  1  0
 82 81  1  0
 83 82  1  0
 84 83  2  0
 82 85  1  1
 86 85  1  0
 87 86  2  0
 88 86  1  0
 89 83  1  0
 90 89  1  0
 91 90  1  0
 92 91  2  0
 90 93  1  6
 94 93  1  0
 95 94  1  0
 96 95  1  0
 97 96  1  0
 98 97  1  0
 99 97  2  0
100 91  1  0
101100  1  0
102101  1  0
103102  2  0
101104  1  1
105104  1  0
106105  1  0
107106  1  0
108107  1  0
110109  1  1
111110  1  0
112111  2  0
113110  1  0
114113  1  0
116115  1  6
117116  1  0
118117  2  0
119116  1  0
120119  1  0
121120  2  0
122120  1  0
123121  1  0
124122  2  0
125124  1  0
125123  2  0
126125  1  0
127117  1  0
128127  1  0
129128  1  0
130129  2  0
128131  1  1
132131  1  0
133132  2  0
134132  1  0
135129  1  0
136135  1  0
137136  1  0
138137  2  0
136139  1  6
140139  1  0
141140  2  0
142140  1  0
143141  1  0
144142  2  0
145144  1  0
145143  2  0
146145  1  0
147137  1  0
148147  1  0
149148  1  0
150149  2  0
148151  1  1
152151  1  0
153152  1  0
154152  1  0
156155  1  1
157156  1  0
158157  2  0
159156  1  0
160159  1  0
161160  1  0
162161  1  0
163162  1  0
164163  1  0
165163  2  0
M  END
$$$$
