
     RDKit          3D

186185  0  0  0  0  0  0  0  0999 V2000
  212.7790  253.4990  225.7470 N   0  0  0  0  0  0  0  0  0  0  0  0
  212.5610  252.5110  226.7960 C   0  0  2  0  0  0  0  0  0  0  0  0
  213.5410  252.6720  227.9500 C   0  0  0  0  0  0  0  0  0  0  0  0
  213.1920  252.3770  229.0980 O   0  0  0  0  0  0  0  0  0  0  0  0
  212.6640  251.1000  226.2170 C   0  0  0  0  0  0  0  0  0  0  0  0
  211.7380  250.8400  225.0390 C   0  0  0  0  0  0  0  0  0  0  0  0
  210.2730  250.8490  225.4280 C   0  0  0  0  0  0  0  0  0  0  0  0
  209.9650  250.6030  226.6140 O   0  0  0  0  0  0  0  0  0  0  0  0
  209.4270  251.1030  224.5460 O   0  0  0  0  0  0  0  0  0  0  0  0
  214.7630  253.1330  227.6720 N   0  0  0  0  0  0  0  0  0  0  0  0
  215.7810  253.2990  228.7020 C   0  0  2  0  0  0  0  0  0  0  0  0
  215.8660  254.7270  229.2150 C   0  0  0  0  0  0  0  0  0  0  0  0
  216.7110  255.0190  230.0710 O   0  0  0  0  0  0  0  0  0  0  0  0
  217.1610  252.8380  228.1950 C   0  0  0  0  0  0  0  0  0  0  0  0
  217.1820  251.3300  228.0270 C   0  0  0  0  0  0  0  0  0  0  0  0
  217.5000  253.5260  226.8870 C   0  0  0  0  0  0  0  0  0  0  0  0
  211.5090  255.0730  231.1490 N   0  0  0  0  0  0  0  0  0  0  0  0
  211.0290  253.9230  231.9010 C   0  0  2  0  0  0  0  0  0  0  0  0
  210.3880  254.3700  233.2090 C   0  0  0  0  0  0  0  0  0  0  0  0
  210.7230  255.4180  233.7670 O   0  0  0  0  0  0  0  0  0  0  0  0
  212.1760  252.9530  232.1820 C   0  0  0  0  0  0  0  0  0  0  0  0
  209.4480  253.5580  233.6960 N   0  0  0  0  0  0  0  0  0  0  0  0
  208.7430  253.9060  234.9250 C   0  0  2  0  0  0  0  0  0  0  0  0
  209.6660  253.8240  236.1340 C   0  0  0  0  0  0  0  0  0  0  0  0
  209.6200  254.6900  237.0160 O   0  0  0  0  0  0  0  0  0  0  0  0
  207.5330  252.9920  235.1130 C   0  0  2  0  0  0  0  0  0  0  0  0
  207.9710  251.6310  235.2130 O   0  0  0  0  0  0  0  0  0  0  0  0
  206.5800  253.1250  233.9370 C   0  0  0  0  0  0  0  0  0  0  0  0
  210.5070  252.7940  236.1950 N   0  0  0  0  0  0  0  0  0  0  0  0
  211.4310  252.6070  237.3030 C   0  0  2  0  0  0  0  0  0  0  0  0
  212.7900  252.1950  236.7620 C   0  0  0  0  0  0  0  0  0  0  0  0
  212.8800  251.3510  235.8670 O   0  0  0  0  0  0  0  0  0  0  0  0
  210.9150  251.5540  238.2900 C   0  0  0  0  0  0  0  0  0  0  0  0
  209.5640  251.8880  238.8950 C   0  0  0  0  0  0  0  0  0  0  0  0
  209.1090  250.8170  239.8650 C   0  0  0  0  0  0  0  0  0  0  0  0
  207.7730  251.0920  240.3820 N   0  0  0  0  0  0  0  0  0  0  0  0
  207.5270  251.8380  241.4520 C   0  0  0  0  0  0  0  0  0  0  0  0
  206.2790  252.0360  241.8500 N   0  0  0  0  0  0  0  0  0  0  0  0
  208.5280  252.3880  242.1240 N   0  0  0  0  0  0  0  0  0  0  0  0
  213.8430  252.7930  237.3110 N   0  0  0  0  0  0  0  0  0  0  0  0
  215.2060  252.5240  236.8880 C   0  0  2  0  0  0  0  0  0  0  0  0
  215.8840  251.5700  237.8680 C   0  0  0  0  0  0  0  0  0  0  0  0
  215.3570  251.2440  238.9330 O   0  0  0  0  0  0  0  0  0  0  0  0
  215.9920  253.8290  236.7560 C   0  0  0  0  0  0  0  0  0  0  0  0
  215.8630  254.4820  235.4130 C   0  0  0  0  0  0  0  0  0  0  0  0
  214.6210  254.8350  234.9140 C   0  0  0  0  0  0  0  0  0  0  0  0
  216.9860  254.7550  234.6520 C   0  0  0  0  0  0  0  0  0  0  0  0
  214.5020  255.4400  233.6790 C   0  0  0  0  0  0  0  0  0  0  0  0
  216.8740  255.3600  233.4180 C   0  0  0  0  0  0  0  0  0  0  0  0
  215.6300  255.7030  232.9310 C   0  0  0  0  0  0  0  0  0  0  0  0
  217.0790  251.1250  237.4970 N   0  0  0  0  0  0  0  0  0  0  0  0
  217.8160  250.1370  238.2660 C   0  0  2  0  0  0  0  0  0  0  0  0
  218.6570  250.8020  239.3520 C   0  0  0  0  0  0  0  0  0  0  0  0
  218.8720  252.0160  239.3600 O   0  0  0  0  0  0  0  0  0  0  0  0
  218.7040  249.3030  237.3440 C   0  0  0  0  0  0  0  0  0  0  0  0
  219.1370  249.9800  240.2810 N   0  0  0  0  0  0  0  0  0  0  0  0
  220.0450  250.4340  241.3190 C   0  0  2  0  0  0  0  0  0  0  0  0
  221.4690  250.4710  240.7690 C   0  0  0  0  0  0  0  0  0  0  0  0
  221.7320  250.0880  239.6270 O   0  0  0  0  0  0  0  0  0  0  0  0
  219.9450  249.5330  242.5470 C   0  0  0  0  0  0  0  0  0  0  0  0
  218.6250  249.5190  243.0600 O   0  0  0  0  0  0  0  0  0  0  0  0
  224.1100  248.7640  241.8750 N   0  0  0  0  0  0  0  0  0  0  0  0
  224.7480  247.4570  241.8690 C   0  0  2  0  0  0  0  0  0  0  0  0
  224.1100  246.4880  240.8850 C   0  0  0  0  0  0  0  0  0  0  0  0
  224.6390  245.3890  240.6910 O   0  0  0  0  0  0  0  0  0  0  0  0
  224.7240  246.8450  243.2760 C   0  0  0  0  0  0  0  0  0  0  0  0
  223.3550  246.4040  243.7410 C   0  0  0  0  0  0  0  0  0  0  0  0
  222.4620  247.3100  244.2920 C   0  0  0  0  0  0  0  0  0  0  0  0
  222.9600  245.0770  243.6390 C   0  0  0  0  0  0  0  0  0  0  0  0
  221.2110  246.9100  244.7200 C   0  0  0  0  0  0  0  0  0  0  0  0
  221.7120  244.6680  244.0630 C   0  0  0  0  0  0  0  0  0  0  0  0
  220.8430  245.5880  244.6040 C   0  0  0  0  0  0  0  0  0  0  0  0
  219.5990  245.1820  245.0290 O   0  0  0  0  0  0  0  0  0  0  0  0
  222.9960  246.8650  240.2640 N   0  0  0  0  0  0  0  0  0  0  0  0
  222.3040  246.0160  239.3010 C   0  0  2  0  0  0  0  0  0  0  0  0
  221.9220  246.8340  238.0720 C   0  0  0  0  0  0  0  0  0  0  0  0
  220.7900  246.7870  237.5900 O   0  0  0  0  0  0  0  0  0  0  0  0
  221.0760  245.3620  239.9320 C   0  0  0  0  0  0  0  0  0  0  0  0
  222.8770  247.6040  237.5560 N   0  0  0  0  0  0  0  0  0  0  0  0
  222.6230  248.4280  236.3830 C   0  0  2  0  0  0  0  0  0  0  0  0
  222.3210  247.5560  235.1720 C   0  0  0  0  0  0  0  0  0  0  0  0
  223.0230  246.5770  234.9030 O   0  0  0  0  0  0  0  0  0  0  0  0
  223.8210  249.3350  236.1050 C   0  0  0  0  0  0  0  0  0  0  0  0
  225.1440  248.6670  236.3050 C   0  0  0  0  0  0  0  0  0  0  0  0
  225.8480  248.5820  237.4670 C   0  0  0  0  0  0  0  0  0  0  0  0
  225.9270  247.9970  235.3120 C   0  0  0  0  0  0  0  0  0  0  0  0
  227.0190  247.8980  237.2630 N   0  0  0  0  0  0  0  0  0  0  0  0
  227.0910  247.5280  235.9470 C   0  0  0  0  0  0  0  0  0  0  0  0
  225.7560  247.7480  233.9480 C   0  0  0  0  0  0  0  0  0  0  0  0
  228.0790  246.8240  235.2660 C   0  0  0  0  0  0  0  0  0  0  0  0
  226.7360  247.0490  233.2760 C   0  0  0  0  0  0  0  0  0  0  0  0
  227.8830  246.5950  233.9330 C   0  0  0  0  0  0  0  0  0  0  0  0
  221.2670  247.9120  234.4460 N   0  0  0  0  0  0  0  0  0  0  0  0
  220.7840  247.1120  233.3320 C   0  0  2  0  0  0  0  0  0  0  0  0
  221.3850  247.5860  232.0160 C   0  0  0  0  0  0  0  0  0  0  0  0
  221.4930  248.7860  231.7550 O   0  0  0  0  0  0  0  0  0  0  0  0
  219.2580  247.1710  233.2560 C   0  0  0  0  0  0  0  0  0  0  0  0
  218.7090  246.5000  232.0140 C   0  0  0  0  0  0  0  0  0  0  0  0
  218.5560  245.2790  231.9700 O   0  0  0  0  0  0  0  0  0  0  0  0
  218.4020  247.2960  230.9970 N   0  0  0  0  0  0  0  0  0  0  0  0
  221.7720  246.6240  231.1830 N   0  0  0  0  0  0  0  0  0  0  0  0
  222.2690  246.8900  229.8440 C   0  0  2  0  0  0  0  0  0  0  0  0
  221.1730  246.5990  228.8280 C   0  0  0  0  0  0  0  0  0  0  0  0
  220.1800  245.9310  229.1270 O   0  0  0  0  0  0  0  0  0  0  0  0
  223.5090  246.0460  229.5240 C   0  0  0  0  0  0  0  0  0  0  0  0
  224.6210  246.1530  230.5470 C   0  0  0  0  0  0  0  0  0  0  0  0
  225.8590  245.3990  230.0910 C   0  0  0  0  0  0  0  0  0  0  0  0
  226.5420  246.0790  228.9950 N   0  0  0  0  0  0  0  0  0  0  0  0
  227.5610  246.9170  229.1590 C   0  0  0  0  0  0  0  0  0  0  0  0
  228.0180  247.1770  230.3750 N   0  0  0  0  0  0  0  0  0  0  0  0
  228.1250  247.4940  228.1090 N   0  0  0  0  0  0  0  0  0  0  0  0
  221.3650  247.1110  227.6150 N   0  0  0  0  0  0  0  0  0  0  0  0
  220.4340  246.8480  226.5200 C   0  0  2  0  0  0  0  0  0  0  0  0
  221.2130  246.9470  225.2180 C   0  0  0  0  0  0  0  0  0  0  0  0
  221.6640  248.0340  224.8460 O   0  0  0  0  0  0  0  0  0  0  0  0
  219.2620  247.8250  226.5370 C   0  0  0  0  0  0  0  0  0  0  0  0
  218.0680  247.3570  225.7200 C   0  0  0  0  0  0  0  0  0  0  0  0
  216.9280  248.3600  225.7620 C   0  0  0  0  0  0  0  0  0  0  0  0
  217.1900  249.5350  224.8370 C   0  0  0  0  0  0  0  0  0  0  0  0
  217.2040  249.1160  223.4090 N   0  0  0  0  0  0  0  0  0  0  0  0
  221.9640  251.7960  232.7200 N   0  0  0  0  0  0  0  0  0  0  0  0
  220.9540  252.5830  233.4160 C   0  0  2  0  0  0  0  0  0  0  0  0
  221.0170  252.2790  234.9030 C   0  0  0  0  0  0  0  0  0  0  0  0
  220.9500  251.1130  235.3020 O   0  0  0  0  0  0  0  0  0  0  0  0
  219.5540  252.2850  232.8700 C   0  0  0  0  0  0  0  0  0  0  0  0
  219.2310  250.9140  233.0160 O   0  0  0  0  0  0  0  0  0  0  0  0
  209.9390  258.3520  246.2250 N   0  0  0  0  0  0  0  0  0  0  0  0
  208.8210  257.7950  246.9590 C   0  0  2  0  0  0  0  0  0  0  0  0
  209.3040  257.3200  248.3100 C   0  0  0  0  0  0  0  0  0  0  0  0
  210.2720  256.5670  248.4000 O   0  0  0  0  0  0  0  0  0  0  0  0
  208.2150  256.6280  246.1810 C   0  0  0  0  0  0  0  0  0  0  0  0
  208.8520  256.4040  244.8190 C   0  0  0  0  0  0  0  0  0  0  0  0
  209.3500  254.9780  244.6660 C   0  0  0  0  0  0  0  0  0  0  0  0
  210.8460  254.9360  244.4000 C   0  0  0  0  0  0  0  0  0  0  0  0
  211.1370  254.7220  242.9550 N   0  0  0  0  0  0  0  0  0  0  0  0
  213.8370  251.8500  249.9960 N   0  0  0  0  0  0  0  0  0  0  0  0
  214.6690  250.6590  249.8640 C   0  0  2  0  0  0  0  0  0  0  0  0
  214.5690  250.1630  248.4410 C   0  0  0  0  0  0  0  0  0  0  0  0
  215.0310  249.0700  248.1370 O   0  0  0  0  0  0  0  0  0  0  0  0
  214.1890  249.5680  250.8140 C   0  0  0  0  0  0  0  0  0  0  0  0
  214.6310  249.7650  252.2410 C   0  0  0  0  0  0  0  0  0  0  0  0
  213.9350  250.6090  253.0930 C   0  0  0  0  0  0  0  0  0  0  0  0
  215.7470  249.1070  252.7380 C   0  0  0  0  0  0  0  0  0  0  0  0
  214.3390  250.7970  254.3970 C   0  0  0  0  0  0  0  0  0  0  0  0
  216.1560  249.2860  254.0450 C   0  0  0  0  0  0  0  0  0  0  0  0
  215.4460  250.1310  254.8700 C   0  0  0  0  0  0  0  0  0  0  0  0
  215.8440  250.3160  256.1740 O   0  0  0  0  0  0  0  0  0  0  0  0
  213.9310  250.9380  247.5710 N   0  0  0  0  0  0  0  0  0  0  0  0
  213.8460  250.5810  246.2020 C   0  0  2  0  0  0  0  0  0  0  0  0
  215.1080  250.9020  245.4690 C   0  0  0  0  0  0  0  0  0  0  0  0
  215.2450  250.5040  244.3300 O   0  0  0  0  0  0  0  0  0  0  0  0
  212.6740  251.2680  245.5640 C   0  0  0  0  0  0  0  0  0  0  0  0
  211.3750  250.5400  245.7700 C   0  0  0  0  0  0  0  0  0  0  0  0
  210.3390  250.9670  245.2730 O   0  0  0  0  0  0  0  0  0  0  0  0
  211.4190  249.4280  246.4890 N   0  0  0  0  0  0  0  0  0  0  0  0
  216.0520  251.5950  246.0940 N   0  0  0  0  0  0  0  0  0  0  0  0
  217.3320  251.9210  245.4810 C   0  0  2  0  0  0  0  0  0  0  0  0
  218.4820  251.6440  246.4500 C   0  0  0  0  0  0  0  0  0  0  0  0
  218.5260  252.2760  247.4650 O   0  0  0  0  0  0  0  0  0  0  0  0
  217.3100  253.3400  244.9900 C   0  0  0  0  0  0  0  0  0  0  0  0
  216.4840  253.5750  243.7620 C   0  0  0  0  0  0  0  0  0  0  0  0
  216.7750  252.9340  242.5790 C   0  0  0  0  0  0  0  0  0  0  0  0
  215.4190  254.4470  243.7850 C   0  0  0  0  0  0  0  0  0  0  0  0
  216.0160  253.1500  241.4540 C   0  0  0  0  0  0  0  0  0  0  0  0
  214.6560  254.6680  242.6650 C   0  0  0  0  0  0  0  0  0  0  0  0
  214.9620  254.0210  241.5010 C   0  0  0  0  0  0  0  0  0  0  0  0
  214.2050  254.2360  240.3760 O   0  0  0  0  0  0  0  0  0  0  0  0
  219.4020  250.7010  246.1590 N   0  0  0  0  0  0  0  0  0  0  0  0
  220.4570  250.3150  247.0800 C   0  0  2  0  0  0  0  0  0  0  0  0
  221.8140  250.4690  246.4080 C   0  0  0  0  0  0  0  0  0  0  0  0
  221.9400  250.3270  245.1880 O   0  0  0  0  0  0  0  0  0  0  0  0
  220.2850  248.8670  247.5620 C   0  0  0  0  0  0  0  0  0  0  0  0
  218.9600  248.4650  248.2140 C   0  0  0  0  0  0  0  0  0  0  0  0
  217.9520  247.9960  247.1750 C   0  0  0  0  0  0  0  0  0  0  0  0
  219.1870  247.3910  249.2650 C   0  0  0  0  0  0  0  0  0  0  0  0
  229.3570  243.7200  236.8990 N   0  0  0  0  0  0  0  0  0  0  0  0
  228.1600  243.7210  237.7300 C   0  0  2  0  0  0  0  0  0  0  0  0
  228.3230  242.6810  238.8300 C   0  0  0  0  0  0  0  0  0  0  0  0
  228.7090  241.5400  238.5560 O   0  0  0  0  0  0  0  0  0  0  0  0
  226.9150  243.4270  236.8940 C   0  0  0  0  0  0  0  0  0  0  0  0
  225.7030  243.0270  237.7150 C   0  0  0  0  0  0  0  0  0  0  0  0
  224.6760  242.3040  236.8640 C   0  0  0  0  0  0  0  0  0  0  0  0
  223.9100  243.2180  236.0230 N   0  0  0  0  0  0  0  0  0  0  0  0
  222.6850  243.6420  236.3130 C   0  0  0  0  0  0  0  0  0  0  0  0
  222.0560  244.4710  235.4920 N   0  0  0  0  0  0  0  0  0  0  0  0
  222.0860  243.2310  237.4210 N   0  0  0  0  0  0  0  0  0  0  0  0
  2  1  1  6
  3  2  1  0
  4  3  2  0
  5  2  1  0
  6  5  1  0
  7  6  1  0
  8  7  2  0
  9  7  1  0
 10  3  1  0
 11 10  1  6
 12 11  1  0
 13 12  2  0
 14 11  1  0
 15 14  1  0
 16 14  1  0
 18 17  1  0
 19 18  1  0
 20 19  2  0
 18 21  1  1
 22 19  1  0
 23 22  1  6
 24 23  1  0
 25 24  2  0
 26 23  1  0
 27 26  1  0
 26 28  1  6
 29 24  1  0
 30 29  1  0
 31 30  1  0
 32 31  2  0
 30 33  1  1
 34 33  1  0
 35 34  1  0
 36 35  1  0
 37 36  1  0
 38 37  1  0
 39 37  2  0
 40 31  1  0
 41 40  1  0
 42 41  1  0
 43 42  2  0
 41 44  1  1
 45 44  1  0
 46 45  2  0
 47 45  1  0
 48 46  1  0
 49 47  2  0
 50 49  1  0
 50 48  2  0
 51 42  1  0
 52 51  1  0
 53 52  1  0
 54 53  2  0
 52 55  1  6
 56 53  1  0
 57 56  1  0
 58 57  1  0
 59 58  2  0
 57 60  1  1
 61 60  1  0
 63 62  1  1
 64 63  1  0
 65 64  2  0
 66 63  1  0
 67 66  1  0
 68 67  2  0
 69 67  1  0
 70 68  1  0
 71 69  2  0
 72 71  1  0
 72 70  2  0
 73 72  1  0
 74 64  1  0
 75 74  1  0
 76 75  1  0
 77 76  2  0
 75 78  1  1
 79 76  1  0
 80 79  1  0
 81 80  1  0
 82 81  2  0
 80 83  1  6
 84 83  1  0
 85 84  2  0
 86 84  1  0
 87 85  1  0
 88 87  1  0
 88 86  2  0
 89 86  1  0
 90 88  1  0
 91 89  2  0
 92 91  1  0
 92 90  2  0
 93 81  1  0
 94 93  1  0
 95 94  1  0
 96 95  2  0
 94 97  1  6
 98 97  1  0
 99 98  2  0
100 98  1  0
101 95  1  0
102101  1  0
103102  1  0
104103  2  0
102105  1  6
106105  1  0
107106  1  0
108107  1  0
109108  1  0
110109  1  0
111109  2  0
112103  1  0
113112  1  0
114113  1  0
115114  2  0
113116  1  6
117116  1  0
118117  1  0
119118  1  0
120119  1  0
122121  1  6
123122  1  0
124123  2  0
125122  1  0
126125  1  0
128127  1  6
129128  1  0
130129  2  0
131128  1  0
132131  1  0
133132  1  0
134133  1  0
135134  1  0
137136  1  6
138137  1  0
139138  2  0
140137  1  0
141140  1  0
142141  2  0
143141  1  0
144142  1  0
145143  2  0
146145  1  0
146144  2  0
147146  1  0
148138  1  0
149148  1  0
150149  1  0
151150  2  0
149152  1  6
153152  1  0
154153  2  0
155153  1  0
156150  1  0
157156  1  0
158157  1  0
159158  2  0
157160  1  1
161160  1  0
162161  2  0
163161  1  0
164162  1  0
165163  2  0
166165  1  0
166164  2  0
167166  1  0
168158  1  0
169168  1  0
170169  1  0
171170  2  0
169172  1  6
173172  1  0
174173  1  0
175173  1  0
177176  1  6
178177  1  0
179178  2  0
180177  1  0
181180  1  0
182181  1  0
183182  1  0
184183  1  0
185184  1  0
186184  2  0
M  END
$$$$
