
     RDKit          3D

146144  0  0  0  0  0  0  0  0999 V2000
  219.2810  223.8520  250.5450 N   0  0  0  0  0  0  0  0  0  0  0  0
  218.7660  224.9030  251.4110 C   0  0  2  0  0  0  0  0  0  0  0  0
  217.6890  224.3930  252.3570 C   0  0  0  0  0  0  0  0  0  0  0  0
  217.5000  224.9740  253.4310 O   0  0  0  0  0  0  0  0  0  0  0  0
  218.2320  226.0580  250.5640 C   0  0  0  0  0  0  0  0  0  0  0  0
  219.2950  226.6680  249.6600 C   0  0  0  0  0  0  0  0  0  0  0  0
  218.8170  227.9010  248.9220 C   0  0  0  0  0  0  0  0  0  0  0  0
  219.3970  228.2160  247.8600 O   0  0  0  0  0  0  0  0  0  0  0  0
  217.8680  228.5580  249.4030 O   0  0  0  0  0  0  0  0  0  0  0  0
  216.9940  223.3190  251.9980 N   0  0  0  0  0  0  0  0  0  0  0  0
  216.0310  222.6960  252.8980 C   0  0  2  0  0  0  0  0  0  0  0  0
  216.6940  221.6410  253.7780 C   0  0  0  0  0  0  0  0  0  0  0  0
  216.4870  221.6120  254.9940 O   0  0  0  0  0  0  0  0  0  0  0  0
  214.8600  222.1000  252.0880 C   0  0  0  0  0  0  0  0  0  0  0  0
  213.8650  221.4290  253.0190 C   0  0  0  0  0  0  0  0  0  0  0  0
  214.1850  223.1830  251.2620 C   0  0  0  0  0  0  0  0  0  0  0  0
  219.5780  223.2040  256.0120 N   0  0  0  0  0  0  0  0  0  0  0  0
  219.1990  224.4010  256.7460 C   0  0  2  0  0  0  0  0  0  0  0  0
  219.7310  224.3410  258.1710 C   0  0  0  0  0  0  0  0  0  0  0  0
  219.7910  223.2760  258.7930 O   0  0  0  0  0  0  0  0  0  0  0  0
  217.6790  224.5580  256.7530 C   0  0  0  0  0  0  0  0  0  0  0  0
  220.1360  225.5030  258.6850 N   0  0  0  0  0  0  0  0  0  0  0  0
  220.7140  225.5570  260.0220 C   0  0  2  0  0  0  0  0  0  0  0  0
  219.6740  225.2970  261.1020 C   0  0  0  0  0  0  0  0  0  0  0  0
  219.9890  224.6770  262.1250 O   0  0  0  0  0  0  0  0  0  0  0  0
  221.3850  226.9110  260.2420 C   0  0  2  0  0  0  0  0  0  0  0  0
  220.4790  227.9570  259.8720 O   0  0  0  0  0  0  0  0  0  0  0  0
  222.6460  227.0160  259.4000 C   0  0  0  0  0  0  0  0  0  0  0  0
  218.4400  225.7560  260.8990 N   0  0  0  0  0  0  0  0  0  0  0  0
  217.3830  225.5880  261.8850 C   0  0  2  0  0  0  0  0  0  0  0  0
  216.0670  225.3170  261.1770 C   0  0  0  0  0  0  0  0  0  0  0  0
  215.6900  226.0550  260.2630 O   0  0  0  0  0  0  0  0  0  0  0  0
  217.2570  226.8280  262.7780 C   0  0  0  0  0  0  0  0  0  0  0  0
  218.4040  227.0100  263.7620 C   0  0  0  0  0  0  0  0  0  0  0  0
  218.9500  228.4250  263.7180 C   0  0  0  0  0  0  0  0  0  0  0  0
  219.9060  228.6670  264.7950 N   0  0  0  0  0  0  0  0  0  0  0  0
  220.6840  229.7420  264.8820 C   0  0  0  0  0  0  0  0  0  0  0  0
  220.6270  230.6820  263.9490 N   0  0  0  0  0  0  0  0  0  0  0  0
  221.5200  229.8790  265.9030 N   0  0  0  0  0  0  0  0  0  0  0  0
  215.3760  224.2630  261.5950 N   0  0  0  0  0  0  0  0  0  0  0  0
  214.0690  223.9520  261.0490 C   0  0  2  0  0  0  0  0  0  0  0  0
  212.9830  224.6740  261.8350 C   0  0  0  0  0  0  0  0  0  0  0  0
  213.1820  225.0990  262.9740 O   0  0  0  0  0  0  0  0  0  0  0  0
  213.8060  222.4430  261.0670 C   0  0  0  0  0  0  0  0  0  0  0  0
  214.5280  221.6830  259.9840 C   0  0  0  0  0  0  0  0  0  0  0  0
  215.5930  222.2540  259.3030 C   0  0  0  0  0  0  0  0  0  0  0  0
  214.1310  220.4020  259.6400 C   0  0  0  0  0  0  0  0  0  0  0  0
  216.2490  221.5640  258.3080 C   0  0  0  0  0  0  0  0  0  0  0  0
  214.7820  219.7100  258.6410 C   0  0  0  0  0  0  0  0  0  0  0  0
  215.8450  220.2920  257.9770 C   0  0  0  0  0  0  0  0  0  0  0  0
  211.8200  224.8100  261.2040 N   0  0  0  0  0  0  0  0  0  0  0  0
  210.6740  225.3930  261.8760 C   0  0  2  0  0  0  0  0  0  0  0  0
  210.0600  224.3790  262.8380 C   0  0  0  0  0  0  0  0  0  0  0  0
  210.3580  223.1810  262.7990 O   0  0  0  0  0  0  0  0  0  0  0  0
  209.6360  225.8680  260.8610 C   0  0  0  0  0  0  0  0  0  0  0  0
  209.1820  224.8770  263.7070 N   0  0  0  0  0  0  0  0  0  0  0  0
  208.5090  224.0230  264.6670 C   0  0  2  0  0  0  0  0  0  0  0  0
  207.4060  223.2180  263.9890 C   0  0  0  0  0  0  0  0  0  0  0  0
  206.8760  223.5950  262.9410 O   0  0  0  0  0  0  0  0  0  0  0  0
  207.9320  224.8580  265.8080 C   0  0  0  0  0  0  0  0  0  0  0  0
  208.9580  225.5320  266.5150 O   0  0  0  0  0  0  0  0  0  0  0  0
  204.1860  225.0140  263.3540 N   0  0  0  0  0  0  0  0  0  0  0  0
  204.3160  226.0840  262.3720 C   0  0  2  0  0  0  0  0  0  0  0  0
  205.2460  225.6640  261.2420 C   0  0  0  0  0  0  0  0  0  0  0  0
  206.1240  226.4180  260.8170 O   0  0  0  0  0  0  0  0  0  0  0  0
  204.8070  227.3710  263.0330 C   0  0  0  0  0  0  0  0  0  0  0  0
  205.0450  224.4440  260.7450 N   0  0  0  0  0  0  0  0  0  0  0  0
  205.9350  223.8450  259.7600 C   0  0  2  0  0  0  0  0  0  0  0  0
  206.0850  224.7300  258.5300 C   0  0  0  0  0  0  0  0  0  0  0  0
  205.1350  225.3830  258.0910 O   0  0  0  0  0  0  0  0  0  0  0  0
  205.4070  222.4690  259.3540 C   0  0  0  0  0  0  0  0  0  0  0  0
  203.9300  222.4440  259.1280 C   0  0  0  0  0  0  0  0  0  0  0  0
  202.9630  222.2640  260.0710 C   0  0  0  0  0  0  0  0  0  0  0  0
  203.2480  222.5960  257.8780 C   0  0  0  0  0  0  0  0  0  0  0  0
  201.7200  222.3010  259.4890 N   0  0  0  0  0  0  0  0  0  0  0  0
  201.8670  222.5040  258.1430 C   0  0  0  0  0  0  0  0  0  0  0  0
  203.6700  222.8060  256.5610 C   0  0  0  0  0  0  0  0  0  0  0  0
  200.9050  222.6130  257.1400 C   0  0  0  0  0  0  0  0  0  0  0  0
  202.7130  222.9130  255.5660 C   0  0  0  0  0  0  0  0  0  0  0  0
  201.3470  222.8180  255.8610 C   0  0  0  0  0  0  0  0  0  0  0  0
  207.3020  224.7610  257.9940 N   0  0  0  0  0  0  0  0  0  0  0  0
  207.6240  225.5240  256.7970 C   0  0  2  0  0  0  0  0  0  0  0  0
  207.3450  224.7010  255.5440 C   0  0  0  0  0  0  0  0  0  0  0  0
  207.3940  223.4680  255.5640 O   0  0  0  0  0  0  0  0  0  0  0  0
  209.0920  225.9550  256.8240 C   0  0  0  0  0  0  0  0  0  0  0  0
  209.4980  226.7300  255.5890 C   0  0  0  0  0  0  0  0  0  0  0  0
  209.0870  227.8730  255.3970 O   0  0  0  0  0  0  0  0  0  0  0  0
  210.3130  226.1120  254.7460 N   0  0  0  0  0  0  0  0  0  0  0  0
  208.4790  224.8210  251.4620 N   0  0  0  0  0  0  0  0  0  0  0  0
  209.2600  225.3820  250.3670 C   0  0  2  0  0  0  0  0  0  0  0  0
  208.7320  224.8420  249.0420 C   0  0  0  0  0  0  0  0  0  0  0  0
  208.6370  223.6240  248.8540 O   0  0  0  0  0  0  0  0  0  0  0  0
  210.7430  225.0550  250.5280 C   0  0  0  0  0  0  0  0  0  0  0  0
  211.6060  225.5430  249.3740 C   0  0  0  0  0  0  0  0  0  0  0  0
  211.4600  227.0430  249.1610 C   0  0  0  0  0  0  0  0  0  0  0  0
  212.2010  227.5010  247.9160 C   0  0  0  0  0  0  0  0  0  0  0  0
  213.6380  227.1170  247.9470 N   0  0  0  0  0  0  0  0  0  0  0  0
  209.3780  220.8830  255.9910 N   0  0  0  0  0  0  0  0  0  0  0  0
  210.4380  220.5150  256.9150 C   0  0  2  0  0  0  0  0  0  0  0  0
  210.1240  221.0370  258.3100 C   0  0  0  0  0  0  0  0  0  0  0  0
  209.6350  222.1590  258.4780 O   0  0  0  0  0  0  0  0  0  0  0  0
  211.7990  221.0520  256.4470 C   0  0  0  0  0  0  0  0  0  0  0  0
  211.7320  222.4410  256.1750 O   0  0  0  0  0  0  0  0  0  0  0  0
  214.4610  225.9310  273.7460 N   0  0  0  0  0  0  0  0  0  0  0  0
  213.0740  226.4800  273.8070 C   0  0  2  0  0  0  0  0  0  0  0  0
  212.6280  227.0280  272.4370 C   0  0  0  0  0  0  0  0  0  0  0  0
  211.5590  227.6110  272.4420 O   0  0  0  0  0  0  0  0  0  0  0  0
  213.0340  227.5660  274.8900 C   0  0  0  0  0  0  0  0  0  0  0  0
  211.6800  228.0370  275.3660 C   0  0  0  0  0  0  0  0  0  0  0  0
  210.9960  229.0400  274.6990 C   0  0  0  0  0  0  0  0  0  0  0  0
  211.1100  227.5340  276.5270 C   0  0  0  0  0  0  0  0  0  0  0  0
  209.7620  229.4920  275.1360 C   0  0  0  0  0  0  0  0  0  0  0  0
  209.8770  227.9750  276.9780 C   0  0  0  0  0  0  0  0  0  0  0  0
  209.2010  228.9600  276.2820 C   0  0  0  0  0  0  0  0  0  0  0  0
  207.9880  229.4030  276.7230 O   0  0  0  0  0  0  0  0  0  0  0  0
  213.4330  226.8680  271.3800 N   0  0  0  0  0  0  0  0  0  0  0  0
  213.0650  227.3370  270.0150 C   0  0  2  0  0  0  0  0  0  0  0  0
  212.2580  226.2390  269.3190 C   0  0  0  0  0  0  0  0  0  0  0  0
  212.1830  226.2650  268.0760 O   0  0  0  0  0  0  0  0  0  0  0  0
  214.2990  227.7200  269.1960 C   0  0  0  0  0  0  0  0  0  0  0  0
  215.1230  228.8120  269.8450 C   0  0  0  0  0  0  0  0  0  0  0  0
  214.6730  229.4580  270.7880 O   0  0  0  0  0  0  0  0  0  0  0  0
  216.3290  229.0240  269.3450 N   0  0  0  0  0  0  0  0  0  0  0  0
  211.6720  225.3260  270.0950 N   0  0  0  0  0  0  0  0  0  0  0  0
  210.9030  224.1790  269.5380 C   0  0  2  0  0  0  0  0  0  0  0  0
  209.5730  224.0360  270.2820 C   0  0  0  0  0  0  0  0  0  0  0  0
  209.5870  223.9120  271.5220 O   0  0  0  0  0  0  0  0  0  0  0  0
  211.7480  222.9010  269.5450 C   0  0  0  0  0  0  0  0  0  0  0  0
  212.8640  222.9340  268.5330 C   0  0  0  0  0  0  0  0  0  0  0  0
  214.1210  222.4320  268.8210 C   0  0  0  0  0  0  0  0  0  0  0  0
  212.6640  223.5020  267.2870 C   0  0  0  0  0  0  0  0  0  0  0  0
  215.1470  222.4810  267.8910 C   0  0  0  0  0  0  0  0  0  0  0  0
  213.6800  223.5710  266.3500 C   0  0  0  0  0  0  0  0  0  0  0  0
  214.9240  223.0520  266.6520 C   0  0  0  0  0  0  0  0  0  0  0  0
  215.9190  223.1160  265.7230 O   0  0  0  0  0  0  0  0  0  0  0  0
  197.8060  224.1790  258.3350 N   0  0  0  0  0  0  0  0  0  0  0  0
  198.7500  224.8610  259.2080 C   0  0  2  0  0  0  0  0  0  0  0  0
  197.9900  225.7280  260.1990 C   0  0  0  0  0  0  0  0  0  0  0  0
  197.0710  226.4590  259.8190 O   0  0  0  0  0  0  0  0  0  0  0  0
  199.7320  225.7190  258.4000 C   0  0  0  0  0  0  0  0  0  0  0  0
  200.8330  226.3440  259.2320 C   0  0  0  0  0  0  0  0  0  0  0  0
  201.8260  227.1080  258.3740 C   0  0  0  0  0  0  0  0  0  0  0  0
  202.9830  227.5230  259.1590 N   0  0  0  0  0  0  0  0  0  0  0  0
  203.9530  228.3160  258.7150 C   0  0  0  0  0  0  0  0  0  0  0  0
  203.9130  228.7970  257.4810 N   0  0  0  0  0  0  0  0  0  0  0  0
  204.9650  228.6340  259.5100 N   0  0  0  0  0  0  0  0  0  0  0  0
  2  1  1  6
  3  2  1  0
  4  3  2  0
  5  2  1  0
  6  5  1  0
  7  6  1  0
  8  7  2  0
  9  7  1  0
 10  3  1  0
 11 10  1  6
 12 11  1  0
 13 12  2  0
 14 11  1  0
 15 14  1  0
 16 14  1  0
 18 17  1  0
 19 18  1  0
 20 19  2  0
 18 21  1  1
 22 19  1  0
 23 22  1  6
 24 23  1  0
 25 24  2  0
 26 23  1  0
 27 26  1  0
 26 28  1  6
 29 24  1  0
 30 29  1  0
 31 30  1  0
 32 31  2  0
 30 33  1  6
 34 33  1  0
 35 34  1  0
 36 35  1  0
 37 36  1  0
 38 37  1  0
 39 37  2  0
 40 31  1  0
 41 40  1  0
 42 41  1  0
 43 42  2  0
 41 44  1  1
 45 44  1  0
 46 45  2  0
 47 45  1  0
 48 46  1  0
 49 47  2  0
 50 49  1  0
 50 48  2  0
 51 42  1  0
 52 51  1  0
 53 52  1  0
 54 53  2  0
 52 55  1  6
 56 53  1  0
 57 56  1  0
 58 57  1  0
 59 58  2  0
 57 60  1  1
 61 60  1  0
 63 62  1  0
 64 63  1  0
 65 64  2  0
 63 66  1  1
 67 64  1  0
 68 67  1  0
 69 68  1  0
 70 69  2  0
 68 71  1  6
 72 71  1  0
 73 72  2  0
 74 72  1  0
 75 73  1  0
 76 75  1  0
 76 74  2  0
 77 74  1  0
 78 76  1  0
 79 77  2  0
 80 78  2  0
 80 79  1  0
 81 69  1  0
 82 81  1  0
 83 82  1  0
 84 83  2  0
 82 85  1  1
 86 85  1  0
 87 86  2  0
 88 86  1  0
 90 89  1  1
 91 90  1  0
 92 91  2  0
 93 90  1  0
 94 93  1  0
 95 94  1  0
 96 95  1  0
 97 96  1  0
 99 98  1  6
100 99  1  0
101100  2  0
102 99  1  0
103102  1  0
105104  1  6
106105  1  0
107106  2  0
108105  1  0
109108  1  0
110109  2  0
111109  1  0
112110  1  0
113111  2  0
114113  1  0
114112  2  0
115114  1  0
116106  1  0
117116  1  0
118117  1  0
119118  2  0
117120  1  6
121120  1  0
122121  2  0
123121  1  0
124118  1  0
125124  1  0
126125  1  0
127126  2  0
125128  1  1
129128  1  0
130129  2  0
131129  1  0
132130  1  0
133131  2  0
134132  2  0
134133  1  0
135134  1  0
137136  1  6
138137  1  0
139138  2  0
140137  1  0
141140  1  0
142141  1  0
143142  1  0
144143  1  0
145144  1  0
146144  2  0
M  END
$$$$
