
     RDKit          3D

154152  0  0  0  0  0  0  0  0999 V2000
  222.9460  218.1270  255.1630 N   0  0  0  0  0  0  0  0  0  0  0  0
  222.4660  219.0470  256.2270 C   0  0  2  0  0  0  0  0  0  0  0  0
  221.4990  218.2960  257.1470 C   0  0  0  0  0  0  0  0  0  0  0  0
  221.3360  218.7280  258.2980 O   0  0  0  0  0  0  0  0  0  0  0  0
  221.8070  220.2710  255.5950 C   0  0  0  0  0  0  0  0  0  0  0  0
  222.4710  220.7150  254.3070 C   0  0  0  0  0  0  0  0  0  0  0  0
  221.9280  222.0200  253.7540 C   0  0  0  0  0  0  0  0  0  0  0  0
  222.5290  222.5520  252.8000 O   0  0  0  0  0  0  0  0  0  0  0  0
  220.9040  222.5030  254.2800 O   0  0  0  0  0  0  0  0  0  0  0  0
  220.8870  217.2190  256.6590 N   0  0  0  0  0  0  0  0  0  0  0  0
  219.9390  216.4350  257.4530 C   0  0  2  0  0  0  0  0  0  0  0  0
  220.6550  215.3960  258.3110 C   0  0  0  0  0  0  0  0  0  0  0  0
  220.4970  215.3610  259.5350 O   0  0  0  0  0  0  0  0  0  0  0  0
  218.9010  215.7940  256.5060 C   0  0  0  0  0  0  0  0  0  0  0  0
  218.1540  214.6720  257.1780 C   0  0  0  0  0  0  0  0  0  0  0  0
  217.9320  216.8510  256.0110 C   0  0  0  0  0  0  0  0  0  0  0  0
  223.7240  217.1260  260.4690 N   0  0  0  0  0  0  0  0  0  0  0  0
  223.3600  218.2040  261.3790 C   0  0  2  0  0  0  0  0  0  0  0  0
  223.9720  217.9900  262.7550 C   0  0  0  0  0  0  0  0  0  0  0  0
  224.1410  216.8530  263.2130 O   0  0  0  0  0  0  0  0  0  0  0  0
  221.8440  218.2890  261.5170 C   0  0  0  0  0  0  0  0  0  0  0  0
  224.3000  219.1020  263.4220 N   0  0  0  0  0  0  0  0  0  0  0  0
  224.9250  219.0300  264.7400 C   0  0  2  0  0  0  0  0  0  0  0  0
  223.9300  218.6150  265.8080 C   0  0  0  0  0  0  0  0  0  0  0  0
  224.2950  217.9320  266.7680 O   0  0  0  0  0  0  0  0  0  0  0  0
  225.5420  220.3730  265.1170 C   0  0  2  0  0  0  0  0  0  0  0  0
  224.4900  221.2960  265.3820 O   0  0  0  0  0  0  0  0  0  0  0  0
  226.3770  220.9280  263.9630 C   0  0  0  0  0  0  0  0  0  0  0  0
  222.6710  219.0240  265.6450 N   0  0  0  0  0  0  0  0  0  0  0  0
  221.6580  218.7290  266.6890 C   0  0  2  0  0  0  0  0  0  0  0  0
  220.3280  218.3500  266.0360 C   0  0  0  0  0  0  0  0  0  0  0  0
  219.8070  219.1750  265.2960 O   0  0  0  0  0  0  0  0  0  0  0  0
  221.4570  219.9580  267.5790 C   0  0  0  0  0  0  0  0  0  0  0  0
  222.3320  219.9850  268.8230 C   0  0  0  0  0  0  0  0  0  0  0  0
  222.7090  221.4080  269.1840 C   0  0  0  0  0  0  0  0  0  0  0  0
  223.9240  221.4890  269.9800 N   0  0  0  0  0  0  0  0  0  0  0  0
  224.8950  222.3690  269.7730 C   0  0  0  0  0  0  0  0  0  0  0  0
  224.7940  223.2460  268.7910 N   0  0  0  0  0  0  0  0  0  0  0  0
  225.9660  222.3690  270.5470 N   0  0  0  0  0  0  0  0  0  0  0  0
  219.8050  217.1860  266.3980 N   0  0  0  0  0  0  0  0  0  0  0  0
  218.4940  216.7820  265.8560 C   0  0  2  0  0  0  0  0  0  0  0  0
  217.4110  217.3410  266.7660 C   0  0  0  0  0  0  0  0  0  0  0  0
  217.6980  217.6480  267.9300 O   0  0  0  0  0  0  0  0  0  0  0  0
  218.4160  215.2600  265.7450 C   0  0  0  0  0  0  0  0  0  0  0  0
  218.9980  214.6730  264.4850 C   0  0  0  0  0  0  0  0  0  0  0  0
  220.0260  215.3080  263.8090 C   0  0  0  0  0  0  0  0  0  0  0  0
  218.5170  213.4800  263.9730 C   0  0  0  0  0  0  0  0  0  0  0  0
  220.5610  214.7600  262.6550 C   0  0  0  0  0  0  0  0  0  0  0  0
  219.0500  212.9340  262.8170 C   0  0  0  0  0  0  0  0  0  0  0  0
  220.0720  213.5750  262.1600 C   0  0  0  0  0  0  0  0  0  0  0  0
  216.1800  217.4030  266.2710 N   0  0  0  0  0  0  0  0  0  0  0  0
  215.0490  217.8720  267.0980 C   0  0  2  0  0  0  0  0  0  0  0  0
  214.6380  216.7800  268.0870 C   0  0  0  0  0  0  0  0  0  0  0  0
  215.1690  215.6630  267.9940 O   0  0  0  0  0  0  0  0  0  0  0  0
  213.8970  218.2030  266.1920 C   0  0  0  0  0  0  0  0  0  0  0  0
  213.7330  217.0980  269.0120 N   0  0  0  0  0  0  0  0  0  0  0  0
  213.2000  216.0640  269.9330 C   0  0  2  0  0  0  0  0  0  0  0  0
  212.1710  215.2150  269.1860 C   0  0  0  0  0  0  0  0  0  0  0  0
  211.5930  215.7200  268.2170 O   0  0  0  0  0  0  0  0  0  0  0  0
  212.6100  216.6940  271.1560 C   0  0  0  0  0  0  0  0  0  0  0  0
  213.6280  217.2050  272.0010 O   0  0  0  0  0  0  0  0  0  0  0  0
  208.8760  216.8390  268.9080 N   0  0  0  0  0  0  0  0  0  0  0  0
  208.8860  217.9900  268.0150 C   0  0  2  0  0  0  0  0  0  0  0  0
  209.7170  217.6910  266.7800 C   0  0  0  0  0  0  0  0  0  0  0  0
  210.5140  218.5310  266.3450 O   0  0  0  0  0  0  0  0  0  0  0  0
  209.4350  219.2270  268.7100 C   0  0  0  0  0  0  0  0  0  0  0  0
  209.5300  216.4950  266.2220 N   0  0  0  0  0  0  0  0  0  0  0  0
  210.3230  216.0290  265.0940 C   0  0  2  0  0  0  0  0  0  0  0  0
  210.3500  217.0600  263.9730 C   0  0  0  0  0  0  0  0  0  0  0  0
  209.3870  217.7960  263.7400 O   0  0  0  0  0  0  0  0  0  0  0  0
  209.7810  214.6890  264.5860 C   0  0  0  0  0  0  0  0  0  0  0  0
  208.2720  214.5740  264.5500 C   0  0  0  0  0  0  0  0  0  0  0  0
  207.4670  214.0840  265.5290 C   0  0  0  0  0  0  0  0  0  0  0  0
  207.4120  214.9290  263.4690 C   0  0  0  0  0  0  0  0  0  0  0  0
  206.1550  214.1320  265.1360 N   0  0  0  0  0  0  0  0  0  0  0  0
  206.0950  214.6410  263.8700 C   0  0  0  0  0  0  0  0  0  0  0  0
  207.6220  215.4620  262.1990 C   0  0  0  0  0  0  0  0  0  0  0  0
  204.9970  214.8630  263.0490 C   0  0  0  0  0  0  0  0  0  0  0  0
  206.5200  215.7020  261.3840 C   0  0  0  0  0  0  0  0  0  0  0  0
  205.2290  215.3980  261.8150 C   0  0  0  0  0  0  0  0  0  0  0  0
  211.5460  217.2150  263.4110 N   0  0  0  0  0  0  0  0  0  0  0  0
  211.7340  218.2110  262.3340 C   0  0  2  0  0  0  0  0  0  0  0  0
  211.4030  217.5420  261.0120 C   0  0  0  0  0  0  0  0  0  0  0  0
  211.5580  216.3210  260.9310 O   0  0  0  0  0  0  0  0  0  0  0  0
  213.1560  218.7710  262.3350 C   0  0  0  0  0  0  0  0  0  0  0  0
  213.4570  219.6690  261.1560 C   0  0  0  0  0  0  0  0  0  0  0  0
  212.8850  220.7500  261.0340 O   0  0  0  0  0  0  0  0  0  0  0  0
  214.3500  219.2310  260.2840 N   0  0  0  0  0  0  0  0  0  0  0  0
  212.2400  218.2200  256.8890 N   0  0  0  0  0  0  0  0  0  0  0  0
  212.8330  218.9370  255.7720 C   0  0  2  0  0  0  0  0  0  0  0  0
  212.2000  218.4180  254.4870 C   0  0  0  0  0  0  0  0  0  0  0  0
  212.2280  217.2130  254.2200 O   0  0  0  0  0  0  0  0  0  0  0  0
  214.3490  218.7660  255.7480 C   0  0  0  0  0  0  0  0  0  0  0  0
  214.9980  219.3720  254.5390 C   0  0  0  0  0  0  0  0  0  0  0  0
  214.7830  220.8660  254.4870 C   0  0  0  0  0  0  0  0  0  0  0  0
  215.6190  221.5100  253.3870 C   0  0  0  0  0  0  0  0  0  0  0  0
  217.0530  221.0670  253.3580 N   0  0  0  0  0  0  0  0  0  0  0  0
  213.5830  213.9840  261.0160 N   0  0  0  0  0  0  0  0  0  0  0  0
  214.6920  213.5490  261.8490 C   0  0  2  0  0  0  0  0  0  0  0  0
  214.4400  213.9120  263.3080 C   0  0  0  0  0  0  0  0  0  0  0  0
  213.8800  214.9740  263.6080 O   0  0  0  0  0  0  0  0  0  0  0  0
  216.0220  214.1450  261.3630 C   0  0  0  0  0  0  0  0  0  0  0  0
  216.0050  215.5630  261.4210 O   0  0  0  0  0  0  0  0  0  0  0  0
  222.5740  215.6740  278.7410 N   0  0  0  0  0  0  0  0  0  0  0  0
  222.0770  216.8080  277.9140 C   0  0  2  0  0  0  0  0  0  0  0  0
  220.5750  216.9950  278.1520 C   0  0  0  0  0  0  0  0  0  0  0  0
  219.7940  216.1460  277.6790 O   0  0  0  0  0  0  0  0  0  0  0  0
  222.3850  216.6090  276.4280 C   0  0  0  0  0  0  0  0  0  0  0  0
  222.0930  217.8410  275.6000 C   0  0  0  0  0  0  0  0  0  0  0  0
  222.0400  217.7750  274.3740 O   0  0  0  0  0  0  0  0  0  0  0  0
  221.9020  218.9720  276.2600 N   0  0  0  0  0  0  0  0  0  0  0  0
  220.1940  218.0690  278.8500 N   0  0  0  0  0  0  0  0  0  0  0  0
  218.7590  218.3550  279.1190 C   0  0  2  0  0  0  0  0  0  0  0  0
  218.3000  219.0790  277.8470 C   0  0  0  0  0  0  0  0  0  0  0  0
  217.8910  220.2530  277.9280 O   0  0  0  0  0  0  0  0  0  0  0  0
  218.6350  219.2420  280.3640 C   0  0  0  0  0  0  0  0  0  0  0  0
  217.2310  219.6010  280.7830 C   0  0  0  0  0  0  0  0  0  0  0  0
  216.7210  220.8660  280.5420 C   0  0  0  0  0  0  0  0  0  0  0  0
  216.4090  218.6810  281.4110 C   0  0  0  0  0  0  0  0  0  0  0  0
  215.4310  221.2090  280.9090 C   0  0  0  0  0  0  0  0  0  0  0  0
  215.1180  219.0090  281.7920 C   0  0  0  0  0  0  0  0  0  0  0  0
  214.6280  220.2780  281.5420 C   0  0  0  0  0  0  0  0  0  0  0  0
  213.3570  220.6100  281.9140 O   0  0  0  0  0  0  0  0  0  0  0  0
  218.3710  218.3980  276.6970 N   0  0  0  0  0  0  0  0  0  0  0  0
  217.9910  219.0440  275.4110 C   0  0  2  0  0  0  0  0  0  0  0  0
  217.2280  217.9860  274.6050 C   0  0  0  0  0  0  0  0  0  0  0  0
  217.1950  218.1130  273.3650 O   0  0  0  0  0  0  0  0  0  0  0  0
  219.1180  219.6480  274.5710 C   0  0  0  0  0  0  0  0  0  0  0  0
  219.7690  220.8480  275.2250 C   0  0  0  0  0  0  0  0  0  0  0  0
  220.8050  221.3240  274.7650 O   0  0  0  0  0  0  0  0  0  0  0  0
  219.1720  221.3430  276.2970 N   0  0  0  0  0  0  0  0  0  0  0  0
  216.6270  216.9960  275.2740 N   0  0  0  0  0  0  0  0  0  0  0  0
  215.8140  215.9800  274.5550 C   0  0  2  0  0  0  0  0  0  0  0  0
  214.5670  215.6440  275.3700 C   0  0  0  0  0  0  0  0  0  0  0  0
  214.6920  215.3780  276.5790 O   0  0  0  0  0  0  0  0  0  0  0  0
  216.6610  214.7380  274.2800 C   0  0  0  0  0  0  0  0  0  0  0  0
  218.0210  215.0440  273.7060 C   0  0  0  0  0  0  0  0  0  0  0  0
  219.1640  214.9140  274.4760 C   0  0  0  0  0  0  0  0  0  0  0  0
  218.1650  215.4860  272.4020 C   0  0  0  0  0  0  0  0  0  0  0  0
  220.4180  215.1990  273.9610 C   0  0  0  0  0  0  0  0  0  0  0  0
  219.4100  215.7750  271.8710 C   0  0  0  0  0  0  0  0  0  0  0  0
  220.5410  215.6310  272.6540 C   0  0  0  0  0  0  0  0  0  0  0  0
  221.7730  215.9150  272.1420 O   0  0  0  0  0  0  0  0  0  0  0  0
  202.1520  215.9030  264.3510 N   0  0  0  0  0  0  0  0  0  0  0  0
  203.1400  216.5130  265.2810 C   0  0  2  0  0  0  0  0  0  0  0  0
  202.3680  217.2290  266.3860 C   0  0  0  0  0  0  0  0  0  0  0  0
  201.3870  217.9180  266.0590 O   0  0  0  0  0  0  0  0  0  0  0  0
  203.9240  217.6200  264.5700 C   0  0  0  0  0  0  0  0  0  0  0  0
  205.1060  218.1600  265.3640 C   0  0  0  0  0  0  0  0  0  0  0  0
  206.0140  219.0340  264.5200 C   0  0  0  0  0  0  0  0  0  0  0  0
  207.0900  219.6420  265.2890 N   0  0  0  0  0  0  0  0  0  0  0  0
  207.9680  220.5080  264.7980 C   0  0  0  0  0  0  0  0  0  0  0  0
  207.9000  220.8690  263.5270 N   0  0  0  0  0  0  0  0  0  0  0  0
  208.9120  221.0080  265.5740 N   0  0  0  0  0  0  0  0  0  0  0  0
  2  1  1  6
  3  2  1  0
  4  3  2  0
  5  2  1  0
  6  5  1  0
  7  6  1  0
  8  7  2  0
  9  7  1  0
 10  3  1  0
 11 10  1  6
 12 11  1  0
 13 12  2  0
 14 11  1  0
 15 14  1  0
 16 14  1  0
 18 17  1  0
 19 18  1  0
 20 19  2  0
 18 21  1  1
 22 19  1  0
 23 22  1  6
 24 23  1  0
 25 24  2  0
 26 23  1  0
 27 26  1  0
 26 28  1  6
 29 24  1  0
 30 29  1  0
 31 30  1  0
 32 31  2  0
 30 33  1  1
 34 33  1  0
 35 34  1  0
 36 35  1  0
 37 36  1  0
 38 37  1  0
 39 37  2  0
 40 31  1  0
 41 40  1  0
 42 41  1  0
 43 42  2  0
 41 44  1  1
 45 44  1  0
 46 45  2  0
 47 45  1  0
 48 46  1  0
 49 47  2  0
 50 49  1  0
 50 48  2  0
 51 42  1  0
 52 51  1  0
 53 52  1  0
 54 53  2  0
 52 55  1  6
 56 53  1  0
 57 56  1  0
 58 57  1  0
 59 58  2  0
 57 60  1  1
 61 60  1  0
 63 62  1  0
 64 63  1  0
 65 64  2  0
 63 66  1  1
 67 64  1  0
 68 67  1  0
 69 68  1  0
 70 69  2  0
 68 71  1  6
 72 71  1  0
 73 72  2  0
 74 72  1  0
 75 73  1  0
 76 75  1  0
 76 74  2  0
 77 74  1  0
 78 76  1  0
 79 77  2  0
 80 79  1  0
 80 78  2  0
 81 69  1  0
 82 81  1  0
 83 82  1  0
 84 83  2  0
 82 85  1  6
 86 85  1  0
 87 86  2  0
 88 86  1  0
 90 89  1  1
 91 90  1  0
 92 91  2  0
 93 90  1  0
 94 93  1  0
 95 94  1  0
 96 95  1  0
 97 96  1  0
 99 98  1  6
100 99  1  0
101100  2  0
102 99  1  0
103102  1  0
105104  1  1
106105  1  0
107106  2  0
108105  1  0
109108  1  0
110109  2  0
111109  1  0
112106  1  0
113112  1  0
114113  1  0
115114  2  0
113116  1  1
117116  1  0
118117  2  0
119117  1  0
120118  1  0
121119  2  0
122121  1  0
122120  2  0
123122  1  0
124114  1  0
125124  1  0
126125  1  0
127126  2  0
125128  1  6
129128  1  0
130129  2  0
131129  1  0
132126  1  0
133132  1  0
134133  1  0
135134  2  0
133136  1  1
137136  1  0
138137  2  0
139137  1  0
140138  1  0
141139  2  0
142141  1  0
142140  2  0
143142  1  0
145144  1  6
146145  1  0
147146  2  0
148145  1  0
149148  1  0
150149  1  0
151150  1  0
152151  1  0
153152  1  0
154152  2  0
M  END
$$$$
