
     RDKit          3D

146144  0  0  0  0  0  0  0  0999 V2000
  222.7450  217.6530  255.4520 N   0  0  0  0  0  0  0  0  0  0  0  0
  222.2780  218.6110  256.4880 C   0  0  2  0  0  0  0  0  0  0  0  0
  221.2530  217.9190  257.3920 C   0  0  0  0  0  0  0  0  0  0  0  0
  221.0780  218.3770  258.5310 O   0  0  0  0  0  0  0  0  0  0  0  0
  221.6930  219.8530  255.8190 C   0  0  0  0  0  0  0  0  0  0  0  0
  222.4120  220.2450  254.5440 C   0  0  0  0  0  0  0  0  0  0  0  0
  221.9450  221.5640  253.9560 C   0  0  0  0  0  0  0  0  0  0  0  0
  222.5960  222.0520  253.0110 O   0  0  0  0  0  0  0  0  0  0  0  0
  220.9300  222.1010  254.4450 O   0  0  0  0  0  0  0  0  0  0  0  0
  220.6060  216.8630  256.9030 N   0  0  0  0  0  0  0  0  0  0  0  0
  219.6020  216.1360  257.6820 C   0  0  2  0  0  0  0  0  0  0  0  0
  220.2460  215.0800  258.5750 C   0  0  0  0  0  0  0  0  0  0  0  0
  220.0520  215.0720  259.7950 O   0  0  0  0  0  0  0  0  0  0  0  0
  218.5620  215.5270  256.7150 C   0  0  0  0  0  0  0  0  0  0  0  0
  217.7470  214.4510  257.3830 C   0  0  0  0  0  0  0  0  0  0  0  0
  217.6570  216.6180  256.1770 C   0  0  0  0  0  0  0  0  0  0  0  0
  223.3290  216.7050  260.7930 N   0  0  0  0  0  0  0  0  0  0  0  0
  222.9900  217.8130  261.6760 C   0  0  2  0  0  0  0  0  0  0  0  0
  223.5530  217.5950  263.0720 C   0  0  0  0  0  0  0  0  0  0  0  0
  223.6570  216.4590  263.5520 O   0  0  0  0  0  0  0  0  0  0  0  0
  221.4760  217.9690  261.7690 C   0  0  0  0  0  0  0  0  0  0  0  0
  224.0030  218.6880  263.6940 N   0  0  0  0  0  0  0  0  0  0  0  0
  224.5710  218.5970  265.0650 C   0  0  2  0  0  0  0  0  0  0  0  0
  223.4110  218.5550  266.0590 C   0  0  0  0  0  0  0  0  0  0  0  0
  223.5890  217.9860  267.1530 O   0  0  0  0  0  0  0  0  0  0  0  0
  225.5200  219.7680  265.3470 C   0  0  2  0  0  0  0  0  0  0  0  0
  224.7570  220.9740  265.3120 O   0  0  0  0  0  0  0  0  0  0  0  0
  226.6590  219.8560  264.3550 C   0  0  0  0  0  0  0  0  0  0  0  0
  222.2680  219.1280  265.6760 N   0  0  0  0  0  0  0  0  0  0  0  0
  221.0750  219.1270  266.5610 C   0  0  2  0  0  0  0  0  0  0  0  0
  219.8930  218.5090  265.8120 C   0  0  0  0  0  0  0  0  0  0  0  0
  219.7010  218.8570  264.6360 O   0  0  0  0  0  0  0  0  0  0  0  0
  220.7350  220.5540  267.0020 C   0  0  0  0  0  0  0  0  0  0  0  0
  221.3430  220.9670  268.3350 C   0  0  0  0  0  0  0  0  0  0  0  0
  222.8520  220.8260  268.3810 C   0  0  0  0  0  0  0  0  0  0  0  0
  223.4170  221.3770  269.6040 N   0  0  0  0  0  0  0  0  0  0  0  0
  223.9190  222.6010  269.7130 C   0  0  0  0  0  0  0  0  0  0  0  0
  223.9350  223.4040  268.6630 N   0  0  0  0  0  0  0  0  0  0  0  0
  224.4090  223.0170  270.8670 N   0  0  0  0  0  0  0  0  0  0  0  0
  219.1600  217.5990  266.4540 N   0  0  0  0  0  0  0  0  0  0  0  0
  217.9290  217.0380  265.8410 C   0  0  2  0  0  0  0  0  0  0  0  0
  216.7620  217.4970  266.7250 C   0  0  0  0  0  0  0  0  0  0  0  0
  217.0330  217.9300  267.8630 O   0  0  0  0  0  0  0  0  0  0  0  0
  217.9890  215.5110  265.7830 C   0  0  0  0  0  0  0  0  0  0  0  0
  218.7620  214.9280  264.6270 C   0  0  0  0  0  0  0  0  0  0  0  0
  219.8140  215.6180  264.0480 C   0  0  0  0  0  0  0  0  0  0  0  0
  218.4410  213.6770  264.1240 C   0  0  0  0  0  0  0  0  0  0  0  0
  220.5210  215.0730  262.9870 C   0  0  0  0  0  0  0  0  0  0  0  0
  219.1490  213.1330  263.0650 C   0  0  0  0  0  0  0  0  0  0  0  0
  220.1900  213.8310  262.4990 C   0  0  0  0  0  0  0  0  0  0  0  0
  215.5170  217.4160  266.2440 N   0  0  0  0  0  0  0  0  0  0  0  0
  214.3660  217.9340  267.0280 C   0  0  2  0  0  0  0  0  0  0  0  0
  213.8490  216.8650  268.0000 C   0  0  0  0  0  0  0  0  0  0  0  0
  214.1400  215.6760  267.7690 O   0  0  0  0  0  0  0  0  0  0  0  0
  213.2780  218.3960  266.0910 C   0  0  0  0  0  0  0  0  0  0  0  0
  213.1150  217.2690  269.0480 N   0  0  0  0  0  0  0  0  0  0  0  0
  212.5100  216.2750  269.9690 C   0  0  2  0  0  0  0  0  0  0  0  0
  211.4640  215.4610  269.2060 C   0  0  0  0  0  0  0  0  0  0  0  0
  210.9370  215.9760  268.2140 O   0  0  0  0  0  0  0  0  0  0  0  0
  211.9150  216.9510  271.1650 C   0  0  0  0  0  0  0  0  0  0  0  0
  212.9320  217.4300  272.0310 O   0  0  0  0  0  0  0  0  0  0  0  0
  208.2560  217.2280  268.8100 N   0  0  0  0  0  0  0  0  0  0  0  0
  208.3430  218.3620  267.9000 C   0  0  2  0  0  0  0  0  0  0  0  0
  209.1930  218.0060  266.6940 C   0  0  0  0  0  0  0  0  0  0  0  0
  210.0390  218.8010  266.2690 O   0  0  0  0  0  0  0  0  0  0  0  0
  208.9280  219.5840  268.5920 C   0  0  0  0  0  0  0  0  0  0  0  0
  208.9670  216.8100  266.1490 N   0  0  0  0  0  0  0  0  0  0  0  0
  209.7690  216.2900  265.0510 C   0  0  2  0  0  0  0  0  0  0  0  0
  209.8740  217.3000  263.9160 C   0  0  0  0  0  0  0  0  0  0  0  0
  208.9530  218.0750  263.6450 O   0  0  0  0  0  0  0  0  0  0  0  0
  209.1810  214.9680  264.5490 C   0  0  0  0  0  0  0  0  0  0  0  0
  207.6700  214.9200  264.4720 C   0  0  0  0  0  0  0  0  0  0  0  0
  206.8170  214.4840  265.4350 C   0  0  0  0  0  0  0  0  0  0  0  0
  206.8570  215.2960  263.3610 C   0  0  0  0  0  0  0  0  0  0  0  0
  205.5200  214.5840  265.0040 N   0  0  0  0  0  0  0  0  0  0  0  0
  205.5180  215.0740  263.7290 C   0  0  0  0  0  0  0  0  0  0  0  0
  207.1260  215.7980  262.0900 C   0  0  0  0  0  0  0  0  0  0  0  0
  204.4540  215.3320  262.8740 C   0  0  0  0  0  0  0  0  0  0  0  0
  206.0600  216.0740  261.2400 C   0  0  0  0  0  0  0  0  0  0  0  0
  204.7450  215.8360  261.6390 C   0  0  0  0  0  0  0  0  0  0  0  0
  211.0910  217.3920  263.3860 N   0  0  0  0  0  0  0  0  0  0  0  0
  211.3540  218.3610  262.3000 C   0  0  2  0  0  0  0  0  0  0  0  0
  211.0300  217.6850  260.9790 C   0  0  0  0  0  0  0  0  0  0  0  0
  211.1310  216.4570  260.9210 O   0  0  0  0  0  0  0  0  0  0  0  0
  212.8000  218.8560  262.3330 C   0  0  0  0  0  0  0  0  0  0  0  0
  213.1740  219.7200  261.1490 C   0  0  0  0  0  0  0  0  0  0  0  0
  212.6550  220.8230  260.9940 O   0  0  0  0  0  0  0  0  0  0  0  0
  214.0700  219.2280  260.3100 N   0  0  0  0  0  0  0  0  0  0  0  0
  212.0110  218.2570  256.8720 N   0  0  0  0  0  0  0  0  0  0  0  0
  212.6660  218.9280  255.7610 C   0  0  2  0  0  0  0  0  0  0  0  0
  212.0460  218.4170  254.4670 C   0  0  0  0  0  0  0  0  0  0  0  0
  212.0270  217.2070  254.2190 O   0  0  0  0  0  0  0  0  0  0  0  0
  214.1730  218.6880  255.7830 C   0  0  0  0  0  0  0  0  0  0  0  0
  214.8820  219.2440  254.5840 C   0  0  0  0  0  0  0  0  0  0  0  0
  214.7370  220.7450  254.5030 C   0  0  0  0  0  0  0  0  0  0  0  0
  215.6320  221.3330  253.4170 C   0  0  0  0  0  0  0  0  0  0  0  0
  217.0440  220.8250  253.4360 N   0  0  0  0  0  0  0  0  0  0  0  0
  213.0440  214.0330  261.0990 N   0  0  0  0  0  0  0  0  0  0  0  0
  214.1090  213.5620  261.9700 C   0  0  2  0  0  0  0  0  0  0  0  0
  213.8330  213.9610  263.4160 C   0  0  0  0  0  0  0  0  0  0  0  0
  213.3140  215.0520  263.6830 O   0  0  0  0  0  0  0  0  0  0  0  0
  215.4780  214.0900  261.5130 C   0  0  0  0  0  0  0  0  0  0  0  0
  215.5240  215.5080  261.5490 O   0  0  0  0  0  0  0  0  0  0  0  0
  218.8880  217.7790  278.9810 N   0  0  0  0  0  0  0  0  0  0  0  0
  217.5190  218.3170  279.1980 C   0  0  2  0  0  0  0  0  0  0  0  0
  216.9890  218.8540  277.8650 C   0  0  0  0  0  0  0  0  0  0  0  0
  215.9340  219.5160  277.8620 O   0  0  0  0  0  0  0  0  0  0  0  0
  217.5490  219.4150  280.2650 C   0  0  0  0  0  0  0  0  0  0  0  0
  216.2150  219.7680  280.8750 C   0  0  0  0  0  0  0  0  0  0  0  0
  215.5030  220.8810  280.4580 C   0  0  0  0  0  0  0  0  0  0  0  0
  215.6700  218.9950  281.8860 C   0  0  0  0  0  0  0  0  0  0  0  0
  214.2820  221.2120  281.0200 C   0  0  0  0  0  0  0  0  0  0  0  0
  214.4490  219.3110  282.4590 C   0  0  0  0  0  0  0  0  0  0  0  0
  213.7520  220.4240  282.0250 C   0  0  0  0  0  0  0  0  0  0  0  0
  212.5480  220.7430  282.5840 O   0  0  0  0  0  0  0  0  0  0  0  0
  217.6970  218.5730  276.7660 N   0  0  0  0  0  0  0  0  0  0  0  0
  217.3020  219.1240  275.4400 C   0  0  2  0  0  0  0  0  0  0  0  0
  216.3270  218.1810  274.7240 C   0  0  0  0  0  0  0  0  0  0  0  0
  216.0130  218.4660  273.5520 O   0  0  0  0  0  0  0  0  0  0  0  0
  218.5200  219.4000  274.5490 C   0  0  0  0  0  0  0  0  0  0  0  0
  219.2640  220.6740  274.8970 C   0  0  0  0  0  0  0  0  0  0  0  0
  220.1750  221.0830  274.1800 O   0  0  0  0  0  0  0  0  0  0  0  0
  218.8770  221.3110  275.9900 N   0  0  0  0  0  0  0  0  0  0  0  0
  215.8580  217.1120  275.3800 N   0  0  0  0  0  0  0  0  0  0  0  0
  214.9980  216.1370  274.6510 C   0  0  2  0  0  0  0  0  0  0  0  0
  213.7130  215.8720  275.4440 C   0  0  0  0  0  0  0  0  0  0  0  0
  213.7980  215.6180  276.6610 O   0  0  0  0  0  0  0  0  0  0  0  0
  215.7790  214.8560  274.3410 C   0  0  0  0  0  0  0  0  0  0  0  0
  216.9120  215.0540  273.3660 C   0  0  0  0  0  0  0  0  0  0  0  0
  218.1200  214.3950  273.5210 C   0  0  0  0  0  0  0  0  0  0  0  0
  216.7800  215.9170  272.2920 C   0  0  0  0  0  0  0  0  0  0  0  0
  219.1640  214.5820  272.6300 C   0  0  0  0  0  0  0  0  0  0  0  0
  217.8150  216.1230  271.3960 C   0  0  0  0  0  0  0  0  0  0  0  0
  219.0110  215.4490  271.5630 C   0  0  0  0  0  0  0  0  0  0  0  0
  220.0310  215.6450  270.6790 O   0  0  0  0  0  0  0  0  0  0  0  0
  201.6250  216.5210  264.0780 N   0  0  0  0  0  0  0  0  0  0  0  0
  202.6130  217.1010  265.0270 C   0  0  2  0  0  0  0  0  0  0  0  0
  201.8440  217.8690  266.0980 C   0  0  0  0  0  0  0  0  0  0  0  0
  200.9050  218.5960  265.7330 O   0  0  0  0  0  0  0  0  0  0  0  0
  203.4660  218.1590  264.3220 C   0  0  0  0  0  0  0  0  0  0  0  0
  204.6490  218.6590  265.1400 C   0  0  0  0  0  0  0  0  0  0  0  0
  205.6190  219.4770  264.3090 C   0  0  0  0  0  0  0  0  0  0  0  0
  206.7000  220.0480  265.0990 N   0  0  0  0  0  0  0  0  0  0  0  0
  207.6300  220.8650  264.6200 C   0  0  0  0  0  0  0  0  0  0  0  0
  207.6140  221.2080  263.3430 N   0  0  0  0  0  0  0  0  0  0  0  0
  208.5740  221.3350  265.4150 N   0  0  0  0  0  0  0  0  0  0  0  0
  2  1  1  6
  3  2  1  0
  4  3  2  0
  5  2  1  0
  6  5  1  0
  7  6  1  0
  8  7  2  0
  9  7  1  0
 10  3  1  0
 11 10  1  6
 12 11  1  0
 13 12  2  0
 14 11  1  0
 15 14  1  0
 16 14  1  0
 18 17  1  0
 19 18  1  0
 20 19  2  0
 18 21  1  1
 22 19  1  0
 23 22  1  6
 24 23  1  0
 25 24  2  0
 26 23  1  0
 27 26  1  0
 26 28  1  6
 29 24  1  0
 30 29  1  0
 31 30  1  0
 32 31  2  0
 30 33  1  6
 34 33  1  0
 35 34  1  0
 36 35  1  0
 37 36  1  0
 38 37  1  0
 39 37  2  0
 40 31  1  0
 41 40  1  0
 42 41  1  0
 43 42  2  0
 41 44  1  1
 45 44  1  0
 46 45  2  0
 47 45  1  0
 48 46  1  0
 49 47  2  0
 50 49  1  0
 50 48  2  0
 51 42  1  0
 52 51  1  0
 53 52  1  0
 54 53  2  0
 52 55  1  6
 56 53  1  0
 57 56  1  0
 58 57  1  0
 59 58  2  0
 57 60  1  1
 61 60  1  0
 63 62  1  0
 64 63  1  0
 65 64  2  0
 63 66  1  1
 67 64  1  0
 68 67  1  0
 69 68  1  0
 70 69  2  0
 68 71  1  6
 72 71  1  0
 73 72  2  0
 74 72  1  0
 75 73  1  0
 76 75  1  0
 76 74  2  0
 77 74  1  0
 78 76  1  0
 79 77  2  0
 80 79  1  0
 80 78  2  0
 81 69  1  0
 82 81  1  0
 83 82  1  0
 84 83  2  0
 82 85  1  6
 86 85  1  0
 87 86  2  0
 88 86  1  0
 90 89  1  1
 91 90  1  0
 92 91  2  0
 93 90  1  0
 94 93  1  0
 95 94  1  0
 96 95  1  0
 97 96  1  0
 99 98  1  6
100 99  1  0
101100  2  0
102 99  1  0
103102  1  0
105104  1  6
106105  1  0
107106  2  0
108105  1  0
109108  1  0
110109  2  0
111109  1  0
112110  1  0
113111  2  0
114113  1  0
114112  2  0
115114  1  0
116106  1  0
117116  1  0
118117  1  0
119118  2  0
117120  1  6
121120  1  0
122121  2  0
123121  1  0
124118  1  0
125124  1  0
126125  1  0
127126  2  0
125128  1  1
129128  1  0
130129  2  0
131129  1  0
132130  1  0
133131  2  0
134133  1  0
134132  2  0
135134  1  0
137136  1  6
138137  1  0
139138  2  0
140137  1  0
141140  1  0
142141  1  0
143142  1  0
144143  1  0
145144  1  0
146144  2  0
M  END
$$$$
