
     RDKit          3D

114109  0  0  0  0  0  0  0  0999 V2000
  147.9970  165.4690  214.6150 N   0  0  0  0  0  0  0  0  0  0  0  0
  148.4550  164.2920  215.3320 C   0  0  2  0  0  0  0  0  0  0  0  0
  149.8660  164.4430  215.8790 C   0  0  0  0  0  0  0  0  0  0  0  0
  150.2910  163.6020  216.6750 O   0  0  0  0  0  0  0  0  0  0  0  0
  148.3910  163.0760  214.4150 C   0  0  0  0  0  0  0  0  0  0  0  0
  146.9960  162.5110  214.2590 C   0  0  0  0  0  0  0  0  0  0  0  0
  146.9890  161.0130  214.1390 C   0  0  0  0  0  0  0  0  0  0  0  0
  148.0790  160.4280  213.9810 O   0  0  0  0  0  0  0  0  0  0  0  0
  145.8970  160.4150  214.2100 O   0  0  0  0  0  0  0  0  0  0  0  0
  149.3640  168.6670  218.2770 N   0  0  0  0  0  0  0  0  0  0  0  0
  148.4510  168.6670  219.4060 C   0  0  2  0  0  0  0  0  0  0  0  0
  148.5640  167.4290  220.2810 C   0  0  0  0  0  0  0  0  0  0  0  0
  147.7370  167.2640  221.1790 O   0  0  0  0  0  0  0  0  0  0  0  0
  147.0160  168.8010  218.9170 C   0  0  0  0  0  0  0  0  0  0  0  0
  146.5300  170.2060  218.9610 C   0  0  0  0  0  0  0  0  0  0  0  0
  146.3690  170.7780  220.0310 O   0  0  0  0  0  0  0  0  0  0  0  0
  146.2880  170.7810  217.7990 N   0  0  0  0  0  0  0  0  0  0  0  0
  149.5320  166.5550  220.0260 N   0  0  0  0  0  0  0  0  0  0  0  0
  149.7440  165.4000  220.8830 C   0  0  2  0  0  0  0  0  0  0  0  0
  150.1610  165.8660  222.2640 C   0  0  0  0  0  0  0  0  0  0  0  0
  151.0600  166.6960  222.3950 O   0  0  0  0  0  0  0  0  0  0  0  0
  150.8070  164.4900  220.2810 C   0  0  0  0  0  0  0  0  0  0  0  0
  149.4850  165.3580  223.2910 N   0  0  0  0  0  0  0  0  0  0  0  0
  149.6510  165.9210  224.6240 C   0  0  2  0  0  0  0  0  0  0  0  0
  150.9660  165.4900  225.2500 C   0  0  0  0  0  0  0  0  0  0  0  0
  151.6480  166.2960  225.8900 O   0  0  0  0  0  0  0  0  0  0  0  0
  148.4870  165.5130  225.5090 C   0  0  2  0  0  0  0  0  0  0  0  0
  147.2650  165.8920  224.8730 O   0  0  0  0  0  0  0  0  0  0  0  0
  148.5540  166.2440  226.8110 C   0  0  0  0  0  0  0  0  0  0  0  0
  151.3570  164.2410  225.0620 N   0  0  0  0  0  0  0  0  0  0  0  0
  152.6130  163.7500  225.6010 C   0  0  2  0  0  0  0  0  0  0  0  0
  153.6920  163.8860  224.5390 C   0  0  0  0  0  0  0  0  0  0  0  0
  153.7530  163.0790  223.6090 O   0  0  0  0  0  0  0  0  0  0  0  0
  152.4980  162.2970  226.0560 C   0  0  0  0  0  0  0  0  0  0  0  0
  153.7180  161.8360  226.8250 C   0  0  0  0  0  0  0  0  0  0  0  0
  153.7780  160.3390  227.0870 C   0  0  0  0  0  0  0  0  0  0  0  0
  152.6340  159.8290  227.8310 N   0  0  0  0  0  0  0  0  0  0  0  0
  151.8680  158.8330  227.4080 C   0  0  0  0  0  0  0  0  0  0  0  0
  152.1450  158.2350  226.2660 N   0  0  0  0  0  0  0  0  0  0  0  0
  150.8450  158.4130  228.1320 N   0  0  0  0  0  0  0  0  0  0  0  0
  154.5370  164.8990  224.6730 N   0  0  0  0  0  0  0  0  0  0  0  0
  155.7530  164.9910  223.8830 C   0  0  2  0  0  0  0  0  0  0  0  0
  156.8600  164.2070  224.5500 C   0  0  0  0  0  0  0  0  0  0  0  0
  157.0710  164.3200  225.7610 O   0  0  0  0  0  0  0  0  0  0  0  0
  156.2090  166.4310  223.6720 C   0  0  0  0  0  0  0  0  0  0  0  0
  155.5100  167.1330  222.5640 C   0  0  0  0  0  0  0  0  0  0  0  0
  154.7340  166.4370  221.6650 C   0  0  0  0  0  0  0  0  0  0  0  0
  155.6900  168.4750  222.3750 C   0  0  0  0  0  0  0  0  0  0  0  0
  154.1160  167.0850  220.6350 C   0  0  0  0  0  0  0  0  0  0  0  0
  155.0690  169.1250  221.3520 C   0  0  0  0  0  0  0  0  0  0  0  0
  154.2850  168.4310  220.4780 C   0  0  0  0  0  0  0  0  0  0  0  0
  160.0520  161.4930  219.1890 N   0  0  0  0  0  0  0  0  0  0  0  0
  159.1660  160.6730  218.3840 C   0  0  2  0  0  0  0  0  0  0  0  0
  159.1190  161.2000  216.9630 C   0  0  0  0  0  0  0  0  0  0  0  0
  158.9460  162.3980  216.7390 O   0  0  0  0  0  0  0  0  0  0  0  0
  157.7630  160.6600  218.9820 C   0  0  0  0  0  0  0  0  0  0  0  0
  156.9070  159.5350  218.4350 C   0  0  0  0  0  0  0  0  0  0  0  0
  157.3760  158.7050  217.6540 O   0  0  0  0  0  0  0  0  0  0  0  0
  155.6410  159.5000  218.8450 N   0  0  0  0  0  0  0  0  0  0  0  0
  151.8960  172.9720  230.9840 N   0  0  0  0  0  0  0  0  0  0  0  0
  151.8370  171.6670  230.3280 C   0  0  2  0  0  0  0  0  0  0  0  0
  153.0080  170.7380  230.6420 C   0  0  0  0  0  0  0  0  0  0  0  0
  152.8890  169.5190  230.4850 O   0  0  0  0  0  0  0  0  0  0  0  0
  151.8400  171.8320  228.8100 C   0  0  0  0  0  0  0  0  0  0  0  0
  150.7760  172.6330  228.1080 C   0  0  0  0  0  0  0  0  0  0  0  0
  151.1110  172.6400  226.6540 C   0  0  0  0  0  0  0  0  0  0  0  0
  149.4640  172.1120  228.3760 C   0  0  0  0  0  0  0  0  0  0  0  0
  154.1230  171.2810  231.1200 N   0  0  0  0  0  0  0  0  0  0  0  0
  155.3460  170.5170  231.3670 C   0  0  2  0  0  0  0  0  0  0  0  0
  156.0050  171.0080  232.6450 C   0  0  0  0  0  0  0  0  0  0  0  0
  157.2120  170.9490  232.8160 O   0  0  0  0  0  0  0  0  0  0  0  0
  156.3220  170.6390  230.1970 C   0  0  0  0  0  0  0  0  0  0  0  0
  155.7400  170.2110  228.8850 C   0  0  0  0  0  0  0  0  0  0  0  0
  155.7900  171.0090  227.9320 O   0  0  0  0  0  0  0  0  0  0  0  0
  155.2560  169.0670  228.7940 O   0  0  0  0  0  0  0  0  0  0  0  0
  158.7540  168.9040  236.9610 N   0  0  0  0  0  0  0  0  0  0  0  0
  158.5250  167.6790  236.2120 C   0  0  2  0  0  0  0  0  0  0  0  0
  159.8760  167.1140  235.8050 C   0  0  0  0  0  0  0  0  0  0  0  0
  160.5040  167.6030  234.8640 O   0  0  0  0  0  0  0  0  0  0  0  0
  157.6410  167.9440  234.9980 C   0  0  0  0  0  0  0  0  0  0  0  0
  156.8780  166.7160  234.5600 C   0  0  0  0  0  0  0  0  0  0  0  0
  157.0420  165.6380  235.1210 O   0  0  0  0  0  0  0  0  0  0  0  0
  156.0250  166.8770  233.5610 N   0  0  0  0  0  0  0  0  0  0  0  0
  160.2750  164.3220  234.4010 N   0  0  0  0  0  0  0  0  0  0  0  0
  159.9350  163.2900  233.4380 C   0  0  2  0  0  0  0  0  0  0  0  0
  160.7470  163.4750  232.1590 C   0  0  0  0  0  0  0  0  0  0  0  0
  160.9690  162.5140  231.4240 O   0  0  0  0  0  0  0  0  0  0  0  0
  158.4120  163.3630  233.1910 C   0  0  0  0  0  0  0  0  0  0  0  0
  157.8660  162.3320  232.1980 C   0  0  0  0  0  0  0  0  0  0  0  0
  158.5230  161.3770  231.8040 O   0  0  0  0  0  0  0  0  0  0  0  0
  156.6160  162.5410  231.7980 N   0  0  0  0  0  0  0  0  0  0  0  0
  161.2840  164.6670  231.9240 N   0  0  0  0  0  0  0  0  0  0  0  0
  162.0300  164.9630  230.7090 C   0  0  2  0  0  0  0  0  0  0  0  0
  163.5190  164.8460  230.9890 C   0  0  0  0  0  0  0  0  0  0  0  0
  164.0300  165.4640  231.9250 O   0  0  0  0  0  0  0  0  0  0  0  0
  161.6810  166.3540  230.1870 C   0  0  0  0  0  0  0  0  0  0  0  0
  160.2140  166.4860  229.8920 C   0  0  0  0  0  0  0  0  0  0  0  0
  159.6710  165.9520  228.7390 C   0  0  0  0  0  0  0  0  0  0  0  0
  159.3680  167.1250  230.7800 C   0  0  0  0  0  0  0  0  0  0  0  0
  158.3280  166.0550  228.4720 C   0  0  0  0  0  0  0  0  0  0  0  0
  158.0230  167.2360  230.5230 C   0  0  0  0  0  0  0  0  0  0  0  0
  157.5090  166.6980  229.3670 C   0  0  0  0  0  0  0  0  0  0  0  0
  156.1650  166.8090  229.1080 O   0  0  0  0  0  0  0  0  0  0  0  0
  158.3190  173.3690  223.8720 N   0  0  0  0  0  0  0  0  0  0  0  0
  157.9770  172.2330  223.0330 C   0  0  2  0  0  0  0  0  0  0  0  0
  158.3780  172.5140  221.5960 C   0  0  0  0  0  0  0  0  0  0  0  0
  158.0820  173.5760  221.0590 O   0  0  0  0  0  0  0  0  0  0  0  0
  156.4810  171.9600  223.1170 C   0  0  0  0  0  0  0  0  0  0  0  0
  156.0290  171.4130  224.4540 C   0  0  0  0  0  0  0  0  0  0  0  0
  154.5580  171.0630  224.4410 C   0  0  0  0  0  0  0  0  0  0  0  0
  154.2240  170.0780  225.4590 N   0  0  0  0  0  0  0  0  0  0  0  0
  153.0660  169.4380  225.5150 C   0  0  0  0  0  0  0  0  0  0  0  0
  152.1420  169.6720  224.5990 N   0  0  0  0  0  0  0  0  0  0  0  0
  152.8390  168.5560  226.4750 N   0  0  0  0  0  0  0  0  0  0  0  0
  2  1  1  6
  3  2  1  0
  4  3  2  0
  5  2  1  0
  6  5  1  0
  7  6  1  0
  8  7  2  0
  9  7  1  0
 11 10  1  6
 12 11  1  0
 13 12  2  0
 14 11  1  0
 15 14  1  0
 16 15  2  0
 17 15  1  0
 18 12  1  0
 19 18  1  0
 20 19  1  0
 21 20  2  0
 19 22  1  6
 23 20  1  0
 24 23  1  6
 25 24  1  0
 26 25  2  0
 27 24  1  0
 28 27  1  0
 27 29  1  1
 30 25  1  0
 31 30  1  0
 32 31  1  0
 33 32  2  0
 31 34  1  6
 35 34  1  0
 36 35  1  0
 37 36  1  0
 38 37  1  0
 39 38  1  0
 40 38  2  0
 41 32  1  0
 42 41  1  0
 43 42  1  0
 44 43  2  0
 42 45  1  1
 46 45  1  0
 47 46  2  0
 48 46  1  0
 49 47  1  0
 50 48  2  0
 51 49  2  0
 51 50  1  0
 53 52  1  1
 54 53  1  0
 55 54  2  0
 56 53  1  0
 57 56  1  0
 58 57  2  0
 59 57  1  0
 61 60  1  1
 62 61  1  0
 63 62  2  0
 64 61  1  0
 65 64  1  0
 66 65  1  0
 67 65  1  0
 68 62  1  0
 69 68  1  0
 70 69  1  0
 71 70  2  0
 69 72  1  6
 73 72  1  0
 74 73  2  0
 75 73  1  0
 77 76  1  6
 78 77  1  0
 79 78  2  0
 80 77  1  0
 81 80  1  0
 82 81  2  0
 83 81  1  0
 85 84  1  1
 86 85  1  0
 87 86  2  0
 88 85  1  0
 89 88  1  0
 90 89  2  0
 91 89  1  0
 92 86  1  0
 93 92  1  0
 94 93  1  0
 95 94  2  0
 93 96  1  1
 97 96  1  0
 98 97  2  0
 99 97  1  0
100 98  1  0
101 99  2  0
102101  1  0
102100  2  0
103102  1  0
105104  1  1
106105  1  0
107106  2  0
108105  1  0
109108  1  0
110109  1  0
111110  1  0
112111  1  0
113112  1  0
114112  2  0
M  END
$$$$
