
     RDKit          3D

120115  0  0  0  0  0  0  0  0999 V2000
  181.6890  122.8420  253.0430 N   0  0  0  0  0  0  0  0  0  0  0  0
  180.4120  122.8200  253.8040 C   0  0  2  0  0  0  0  0  0  0  0  0
  180.1010  124.2240  254.3340 C   0  0  0  0  0  0  0  0  0  0  0  0
  178.9380  124.6520  254.2090 O   0  0  0  0  0  0  0  0  0  0  0  0
  180.4500  121.7920  254.9370 C   0  0  0  0  0  0  0  0  0  0  0  0
  179.0750  121.4210  255.4500 C   0  0  0  0  0  0  0  0  0  0  0  0
  178.0750  121.6250  254.7660 O   0  0  0  0  0  0  0  0  0  0  0  0
  179.0180  120.8630  256.6480 N   0  0  0  0  0  0  0  0  0  0  0  0
  181.1040  124.9110  254.8900 N   0  0  0  0  0  0  0  0  0  0  0  0
  180.8790  126.2630  255.4660 C   0  0  2  0  0  0  0  0  0  0  0  0
  182.1130  127.1470  255.2750 C   0  0  0  0  0  0  0  0  0  0  0  0
  183.2320  126.6140  255.3750 O   0  0  0  0  0  0  0  0  0  0  0  0
  180.5700  126.1620  256.9630 C   0  0  0  0  0  0  0  0  0  0  0  0
  179.0960  126.2130  257.3370 C   0  0  0  0  0  0  0  0  0  0  0  0
  178.8720  126.4020  258.8210 C   0  0  0  0  0  0  0  0  0  0  0  0
  179.5250  127.6570  259.3600 C   0  0  0  0  0  0  0  0  0  0  0  0
  179.0040  128.8760  258.6970 N   0  0  0  0  0  0  0  0  0  0  0  0
  183.6630  130.7940  256.8780 N   0  0  0  0  0  0  0  0  0  0  0  0
  183.4110  131.8470  257.8970 C   0  0  2  0  0  0  0  0  0  0  0  0
  184.7310  132.4980  258.3140 C   0  0  0  0  0  0  0  0  0  0  0  0
  185.7780  131.8540  258.1450 O   0  0  0  0  0  0  0  0  0  0  0  0
  182.6950  131.2770  259.0940 C   0  0  0  0  0  0  0  0  0  0  0  0
  181.4070  130.7960  258.7420 O   0  0  0  0  0  0  0  0  0  0  0  0
  186.5600  134.3660  261.7090 N   0  0  0  0  0  0  0  0  0  0  0  0
  186.4700  134.8350  263.1150 C   0  0  2  0  0  0  0  0  0  0  0  0
  186.8490  136.3180  263.1410 C   0  0  0  0  0  0  0  0  0  0  0  0
  187.8220  136.6860  262.4550 O   0  0  0  0  0  0  0  0  0  0  0  0
  187.4430  134.0070  263.9600 C   0  0  0  0  0  0  0  0  0  0  0  0
  187.4810  134.3380  265.4510 C   0  0  0  0  0  0  0  0  0  0  0  0
  186.1730  133.9530  266.1210 C   0  0  0  0  0  0  0  0  0  0  0  0
  188.6500  133.6400  266.1300 C   0  0  0  0  0  0  0  0  0  0  0  0
  187.2120  137.8730  270.4120 N   0  0  0  0  0  0  0  0  0  0  0  0
  187.2820  136.3990  270.6050 C   0  0  2  0  0  0  0  0  0  0  0  0
  185.8940  135.7630  270.4740 C   0  0  0  0  0  0  0  0  0  0  0  0
  185.8130  134.6760  269.8780 O   0  0  0  0  0  0  0  0  0  0  0  0
  187.9370  136.0450  271.9420 C   0  0  0  0  0  0  0  0  0  0  0  0
  189.3810  136.5050  272.0450 C   0  0  0  0  0  0  0  0  0  0  0  0
  189.9110  137.0010  271.0300 O   0  0  0  0  0  0  0  0  0  0  0  0
  189.9630  136.3650  273.1380 O   0  0  0  0  0  0  0  0  0  0  0  0
  182.0910  135.9500  265.6080 N   0  0  0  0  0  0  0  0  0  0  0  0
  182.4440  135.2720  264.3300 C   0  0  2  0  0  0  0  0  0  0  0  0
  181.4900  135.7660  263.2360 C   0  0  0  0  0  0  0  0  0  0  0  0
  180.2730  135.8090  263.5000 O   0  0  0  0  0  0  0  0  0  0  0  0
  182.3310  133.7570  264.5070 C   0  0  0  0  0  0  0  0  0  0  0  0
  182.4310  132.9750  263.2100 C   0  0  0  0  0  0  0  0  0  0  0  0
  181.7750  131.6070  263.2740 C   0  0  0  0  0  0  0  0  0  0  0  0
  181.1770  131.2910  264.3210 O   0  0  0  0  0  0  0  0  0  0  0  0
  181.8640  130.8620  262.2800 O   0  0  0  0  0  0  0  0  0  0  0  0
  185.2890  113.1630  254.8720 N   0  0  0  0  0  0  0  0  0  0  0  0
  183.8880  113.6620  254.8430 C   0  0  2  0  0  0  0  0  0  0  0  0
  183.7570  114.7650  255.8950 C   0  0  0  0  0  0  0  0  0  0  0  0
  183.0660  115.7580  255.6160 O   0  0  0  0  0  0  0  0  0  0  0  0
  182.8870  112.5250  255.0630 C   0  0  0  0  0  0  0  0  0  0  0  0
  181.4740  112.8670  254.6220 C   0  0  0  0  0  0  0  0  0  0  0  0
  181.3060  113.8900  253.9310 O   0  0  0  0  0  0  0  0  0  0  0  0
  180.5520  112.1060  254.9750 O   0  0  0  0  0  0  0  0  0  0  0  0
  184.3770  114.5900  257.0650 N   0  0  0  0  0  0  0  0  0  0  0  0
  184.3830  115.6780  258.0630 C   0  0  0  0  0  0  0  0  0  0  0  0
  185.7870  116.2370  258.2100 C   0  0  0  0  0  0  0  0  0  0  0  0
  186.6800  115.4680  258.6150 O   0  0  0  0  0  0  0  0  0  0  0  0
  185.9770  117.5250  257.9060 N   0  0  0  0  0  0  0  0  0  0  0  0
  187.3370  118.1290  257.9500 C   0  0  2  0  0  0  0  0  0  0  0  0
  187.2710  119.5270  258.5720 C   0  0  0  0  0  0  0  0  0  0  0  0
  186.2440  120.2070  258.3830 O   0  0  0  0  0  0  0  0  0  0  0  0
  187.9780  118.1600  256.5600 C   0  0  0  0  0  0  0  0  0  0  0  0
  188.9370  117.0100  256.3080 C   0  0  0  0  0  0  0  0  0  0  0  0
  189.2530  116.2890  257.2740 O   0  0  0  0  0  0  0  0  0  0  0  0
  189.3620  116.8460  255.1490 O   0  0  0  0  0  0  0  0  0  0  0  0
  188.3310  119.9360  259.2770 N   0  0  0  0  0  0  0  0  0  0  0  0
  188.3860  121.2980  259.8700 C   0  0  2  0  0  0  0  0  0  0  0  0
  189.5730  122.0570  259.2690 C   0  0  0  0  0  0  0  0  0  0  0  0
  190.7100  121.5600  259.3540 O   0  0  0  0  0  0  0  0  0  0  0  0
  188.5090  121.2030  261.3930 C   0  0  0  0  0  0  0  0  0  0  0  0
  188.6960  122.5190  262.1040 C   0  0  0  0  0  0  0  0  0  0  0  0
  187.8480  123.5870  261.8690 C   0  0  0  0  0  0  0  0  0  0  0  0
  189.7110  122.6930  263.0310 C   0  0  0  0  0  0  0  0  0  0  0  0
  188.0120  124.7970  262.5210 C   0  0  0  0  0  0  0  0  0  0  0  0
  189.8880  123.8960  263.6950 C   0  0  0  0  0  0  0  0  0  0  0  0
  189.0340  124.9520  263.4380 C   0  0  0  0  0  0  0  0  0  0  0  0
  189.1940  126.1440  264.0840 O   0  0  0  0  0  0  0  0  0  0  0  0
  189.3160  123.2370  258.6990 N   0  0  0  0  0  0  0  0  0  0  0  0
  190.4060  124.0550  258.1070 C   0  0  2  0  0  0  0  0  0  0  0  0
  190.4280  125.4280  258.7800 C   0  0  0  0  0  0  0  0  0  0  0  0
  189.3620  126.0600  258.8630 O   0  0  0  0  0  0  0  0  0  0  0  0
  190.1970  124.2110  256.5990 C   0  0  0  0  0  0  0  0  0  0  0  0
  190.0660  122.9140  255.8430 C   0  0  0  0  0  0  0  0  0  0  0  0
  191.1510  122.0690  255.6850 C   0  0  0  0  0  0  0  0  0  0  0  0
  188.8590  122.5320  255.2820 C   0  0  0  0  0  0  0  0  0  0  0  0
  191.0410  120.8740  254.9950 C   0  0  0  0  0  0  0  0  0  0  0  0
  188.7320  121.3430  254.5850 C   0  0  0  0  0  0  0  0  0  0  0  0
  189.8270  120.5110  254.4410 C   0  0  0  0  0  0  0  0  0  0  0  0
  189.7140  119.3370  253.7550 O   0  0  0  0  0  0  0  0  0  0  0  0
  187.9410  130.3690  258.9550 N   0  0  0  0  0  0  0  0  0  0  0  0
  187.6330  128.9380  259.2560 C   0  0  2  0  0  0  0  0  0  0  0  0
  186.7820  128.3350  258.1300 C   0  0  0  0  0  0  0  0  0  0  0  0
  185.8010  128.9790  257.7160 O   0  0  0  0  0  0  0  0  0  0  0  0
  186.9770  128.7990  260.6450 C   0  0  0  0  0  0  0  0  0  0  0  0
  185.9660  129.9010  260.9260 C   0  0  0  0  0  0  0  0  0  0  0  0
  186.3660  127.4280  260.8710 C   0  0  0  0  0  0  0  0  0  0  0  0
  187.1560  127.1440  257.6490 N   0  0  0  0  0  0  0  0  0  0  0  0
  186.4230  126.4970  256.5360 C   0  0  2  0  0  0  0  0  0  0  0  0
  186.0630  125.0550  256.9080 C   0  0  0  0  0  0  0  0  0  0  0  0
  186.7720  124.4660  257.7480 O   0  0  0  0  0  0  0  0  0  0  0  0
  187.2530  126.5400  255.2790 C   0  0  0  0  0  0  0  0  0  0  0  0
  185.0020  124.5130  256.3040 N   0  0  0  0  0  0  0  0  0  0  0  0
  184.6060  123.1030  256.5580 C   0  0  2  0  0  0  0  0  0  0  0  0
  184.7420  122.3040  255.2600 C   0  0  0  0  0  0  0  0  0  0  0  0
  184.5150  122.8880  254.1870 O   0  0  0  0  0  0  0  0  0  0  0  0
  183.2030  123.0210  257.0940 C   0  0  0  0  0  0  0  0  0  0  0  0
  182.8700  121.6810  257.4250 O   0  0  0  0  0  0  0  0  0  0  0  0
  185.1020  121.0230  255.3600 N   0  0  0  0  0  0  0  0  0  0  0  0
  185.2020  120.1740  254.1590 C   0  0  0  0  0  0  0  0  0  0  0  0
  184.2170  119.0220  254.2130 C   0  0  0  0  0  0  0  0  0  0  0  0
  184.1810  118.3380  255.2520 O   0  0  0  0  0  0  0  0  0  0  0  0
  183.4420  118.8220  253.1410 N   0  0  0  0  0  0  0  0  0  0  0  0
  182.4720  117.6960  253.0800 C   0  0  2  0  0  0  0  0  0  0  0  0
  182.6000  116.9650  251.7400 C   0  0  0  0  0  0  0  0  0  0  0  0
  182.9520  117.6250  250.7450 O   0  0  0  0  0  0  0  0  0  0  0  0
  181.0660  118.1680  253.3270 C   0  0  0  0  0  0  0  0  0  0  0  0
  180.8650  118.4530  254.7030 O   0  0  0  0  0  0  0  0  0  0  0  0
  2  1  1  1
  3  2  1  0
  4  3  2  0
  5  2  1  0
  6  5  1  0
  7  6  2  0
  8  6  1  0
  9  3  1  0
 10  9  1  0
 11 10  1  0
 12 11  2  0
 10 13  1  1
 14 13  1  0
 15 14  1  0
 16 15  1  0
 17 16  1  0
 19 18  1  6
 20 19  1  0
 21 20  2  0
 22 19  1  0
 23 22  1  0
 25 24  1  6
 26 25  1  0
 27 26  2  0
 28 25  1  0
 29 28  1  0
 30 29  1  0
 31 29  1  0
 33 32  1  1
 34 33  1  0
 35 34  2  0
 36 33  1  0
 37 36  1  0
 38 37  2  0
 39 37  1  0
 41 40  1  1
 42 41  1  0
 43 42  2  0
 44 41  1  0
 45 44  1  0
 46 45  1  0
 47 46  2  0
 48 46  1  0
 50 49  1  1
 51 50  1  0
 52 51  2  0
 53 50  1  0
 54 53  1  0
 55 54  2  0
 56 54  1  0
 57 51  1  0
 58 57  1  0
 59 58  1  0
 60 59  2  0
 61 59  1  0
 62 61  1  0
 63 62  1  0
 64 63  2  0
 62 65  1  6
 66 65  1  0
 67 66  2  0
 68 66  1  0
 69 63  1  0
 70 69  1  0
 71 70  1  0
 72 71  2  0
 70 73  1  1
 74 73  1  0
 75 74  2  0
 76 74  1  0
 77 75  1  0
 78 76  2  0
 79 78  1  0
 79 77  2  0
 80 79  1  0
 81 71  1  0
 82 81  1  0
 83 82  1  0
 84 83  2  0
 82 85  1  6
 86 85  1  0
 87 86  2  0
 88 86  1  0
 89 87  1  0
 90 88  2  0
 91 90  1  0
 91 89  2  0
 92 91  1  0
 94 93  1  6
 95 94  1  0
 96 95  2  0
 97 94  1  0
 98 97  1  0
 99 97  1  0
100 95  1  0
101100  1  0
102101  1  0
103102  2  0
101104  1  6
105102  1  0
106105  1  0
107106  1  0
108107  2  0
106109  1  6
110109  1  0
111107  1  0
112111  1  0
113112  1  0
114113  2  0
115113  1  0
116115  1  0
117116  1  0
118117  2  0
116119  1  6
120119  1  0
M  END
$$$$
