
     RDKit          3D

148147  0  0  0  0  0  0  0  0999 V2000
   62.3740   -2.8910   -5.0540 N   0  0  0  0  0  0  0  0  0  0  0  0
   62.4700   -4.0490   -5.9390 C   0  0  2  0  0  0  0  0  0  0  0  0
   63.8250   -4.1050   -6.6360 C   0  0  0  0  0  0  0  0  0  0  0  0
   64.3850   -5.1900   -6.8290 O   0  0  0  0  0  0  0  0  0  0  0  0
   61.3300   -4.0420   -6.9620 C   0  0  0  0  0  0  0  0  0  0  0  0
   61.2920   -2.7770   -7.8030 C   0  0  0  0  0  0  0  0  0  0  0  0
   62.3250   -2.2100   -8.1570 O   0  0  0  0  0  0  0  0  0  0  0  0
   60.0880   -2.3330   -8.1340 N   0  0  0  0  0  0  0  0  0  0  0  0
   66.1980   -7.0260   -5.1520 N   0  0  0  0  0  0  0  0  0  0  0  0
   66.0230   -8.1570   -6.0540 C   0  0  2  0  0  0  0  0  0  0  0  0
   66.7980   -8.0560   -7.3620 C   0  0  0  0  0  0  0  0  0  0  0  0
   66.6960   -8.9700   -8.1880 O   0  0  0  0  0  0  0  0  0  0  0  0
   64.5350   -8.3470   -6.3810 C   0  0  0  0  0  0  0  0  0  0  0  0
   63.6530   -8.5570   -5.1720 C   0  0  0  0  0  0  0  0  0  0  0  0
   64.1170   -9.2470   -4.0590 C   0  0  0  0  0  0  0  0  0  0  0  0
   62.3560   -8.0630   -5.1440 C   0  0  0  0  0  0  0  0  0  0  0  0
   63.3140   -9.4390   -2.9540 C   0  0  0  0  0  0  0  0  0  0  0  0
   61.5450   -8.2500   -4.0430 C   0  0  0  0  0  0  0  0  0  0  0  0
   62.0290   -8.9390   -2.9510 C   0  0  0  0  0  0  0  0  0  0  0  0
   61.2270   -9.1300   -1.8510 O   0  0  0  0  0  0  0  0  0  0  0  0
   63.6440   -8.0070  -12.2790 N   0  0  0  0  0  0  0  0  0  0  0  0
   63.1300   -9.0840  -11.4450 C   0  0  2  0  0  0  0  0  0  0  0  0
   62.0720   -8.5370  -10.4960 C   0  0  0  0  0  0  0  0  0  0  0  0
   62.3090   -7.5500   -9.7920 O   0  0  0  0  0  0  0  0  0  0  0  0
   64.2580   -9.7500  -10.6560 C   0  0  0  0  0  0  0  0  0  0  0  0
   63.7900  -10.8850   -9.7610 C   0  0  0  0  0  0  0  0  0  0  0  0
   64.9630  -11.6830   -9.2200 C   0  0  0  0  0  0  0  0  0  0  0  0
   65.8540  -12.1160  -10.2900 N   0  0  0  0  0  0  0  0  0  0  0  0
   65.6620  -13.1980  -11.0320 C   0  0  0  0  0  0  0  0  0  0  0  0
   64.6170  -13.9870  -10.8460 N   0  0  0  0  0  0  0  0  0  0  0  0
   66.5390  -13.4930  -11.9860 N   0  0  0  0  0  0  0  0  0  0  0  0
   60.9060   -9.1790  -10.4830 N   0  0  0  0  0  0  0  0  0  0  0  0
   59.8040   -8.7650   -9.6240 C   0  0  2  0  0  0  0  0  0  0  0  0
   59.6830   -9.6070   -8.3630 C   0  0  0  0  0  0  0  0  0  0  0  0
   59.4250   -9.0620   -7.2850 O   0  0  0  0  0  0  0  0  0  0  0  0
   58.4810   -8.8160  -10.3950 C   0  0  0  0  0  0  0  0  0  0  0  0
   57.2690   -8.2500   -9.6520 C   0  0  0  0  0  0  0  0  0  0  0  0
   57.5230   -6.8040   -9.2550 C   0  0  0  0  0  0  0  0  0  0  0  0
   56.0150   -8.3630  -10.4990 C   0  0  0  0  0  0  0  0  0  0  0  0
   59.8680  -10.9200   -8.4670 N   0  0  0  0  0  0  0  0  0  0  0  0
   59.6940  -11.8280   -7.3440 C   0  0  2  0  0  0  0  0  0  0  0  0
   61.0070  -12.5190   -7.0090 C   0  0  0  0  0  0  0  0  0  0  0  0
   61.7390  -12.9550   -7.9040 O   0  0  0  0  0  0  0  0  0  0  0  0
   58.6210  -12.8790   -7.6430 C   0  0  0  0  0  0  0  0  0  0  0  0
   57.2600  -12.3030   -7.9050 C   0  0  0  0  0  0  0  0  0  0  0  0
   56.5310  -11.7200   -6.8820 C   0  0  0  0  0  0  0  0  0  0  0  0
   56.7020  -12.3560   -9.1710 C   0  0  0  0  0  0  0  0  0  0  0  0
   55.2770  -11.1930   -7.1190 C   0  0  0  0  0  0  0  0  0  0  0  0
   55.4480  -11.8310   -9.4140 C   0  0  0  0  0  0  0  0  0  0  0  0
   54.7350  -11.2490   -8.3870 C   0  0  0  0  0  0  0  0  0  0  0  0
   61.2970  -12.6160   -5.7140 N   0  0  0  0  0  0  0  0  0  0  0  0
   62.4540  -13.3550   -5.2320 C   0  0  2  0  0  0  0  0  0  0  0  0
   62.2110  -13.7250   -3.7760 C   0  0  0  0  0  0  0  0  0  0  0  0
   61.6680  -12.9240   -3.0100 O   0  0  0  0  0  0  0  0  0  0  0  0
   63.7460  -12.5440   -5.3780 C   0  0  0  0  0  0  0  0  0  0  0  0
   65.0000  -13.4020   -5.3870 C   0  0  0  0  0  0  0  0  0  0  0  0
   66.2500  -12.5740   -5.6190 C   0  0  0  0  0  0  0  0  0  0  0  0
   67.4090  -13.4160   -5.8910 N   0  0  0  0  0  0  0  0  0  0  0  0
   68.1730  -13.9630   -4.9560 C   0  0  0  0  0  0  0  0  0  0  0  0
   67.9310  -13.7750   -3.6690 N   0  0  0  0  0  0  0  0  0  0  0  0
   69.2090  -14.7120   -5.3210 N   0  0  0  0  0  0  0  0  0  0  0  0
   62.6150  -14.9430   -3.4050 N   0  0  0  0  0  0  0  0  0  0  0  0
   62.3150  -15.4510   -2.0700 C   0  0  2  0  0  0  0  0  0  0  0  0
   63.0300  -14.6570   -0.9840 C   0  0  0  0  0  0  0  0  0  0  0  0
   62.4910  -14.4900    0.1170 O   0  0  0  0  0  0  0  0  0  0  0  0
   62.6860  -16.9320   -1.9800 C   0  0  0  0  0  0  0  0  0  0  0  0
   61.9280  -17.8160   -2.9590 C   0  0  0  0  0  0  0  0  0  0  0  0
   62.3280  -19.2790   -2.8270 C   0  0  0  0  0  0  0  0  0  0  0  0
   61.5290  -20.1530   -3.7830 C   0  0  0  0  0  0  0  0  0  0  0  0
   61.8740  -21.5960   -3.6570 N   0  0  0  0  0  0  0  0  0  0  0  0
   58.5650  -18.6510   -9.9800 N   0  0  0  0  0  0  0  0  0  0  0  0
   58.5130  -18.2970   -8.5680 C   0  0  2  0  0  0  0  0  0  0  0  0
   57.2860  -18.9170   -7.9110 C   0  0  0  0  0  0  0  0  0  0  0  0
   56.1740  -18.8280   -8.4400 O   0  0  0  0  0  0  0  0  0  0  0  0
   58.4930  -16.7770   -8.4160 C   0  0  0  0  0  0  0  0  0  0  0  0
   58.4820  -16.2890   -6.9870 C   0  0  0  0  0  0  0  0  0  0  0  0
   59.6520  -16.2430   -6.2390 C   0  0  0  0  0  0  0  0  0  0  0  0
   57.3040  -15.8590   -6.3900 C   0  0  0  0  0  0  0  0  0  0  0  0
   59.6480  -15.7920   -4.9340 C   0  0  0  0  0  0  0  0  0  0  0  0
   57.2910  -15.4050   -5.0870 C   0  0  0  0  0  0  0  0  0  0  0  0
   58.4660  -15.3750   -4.3630 C   0  0  0  0  0  0  0  0  0  0  0  0
   58.4610  -14.9250   -3.0640 O   0  0  0  0  0  0  0  0  0  0  0  0
   57.4900  -19.5480   -6.7560 N   0  0  0  0  0  0  0  0  0  0  0  0
   56.4190  -20.2140   -6.0210 C   0  0  2  0  0  0  0  0  0  0  0  0
   55.8770  -19.2570   -4.9650 C   0  0  0  0  0  0  0  0  0  0  0  0
   56.5280  -19.0110   -3.9440 O   0  0  0  0  0  0  0  0  0  0  0  0
   56.9150  -21.5110   -5.3850 C   0  0  0  0  0  0  0  0  0  0  0  0
   55.8480  -22.2410   -4.5840 C   0  0  0  0  0  0  0  0  0  0  0  0
   56.3140  -23.5900   -4.0720 C   0  0  0  0  0  0  0  0  0  0  0  0
   57.1740  -24.2330   -4.6730 O   0  0  0  0  0  0  0  0  0  0  0  0
   55.7460  -24.0240   -2.9530 N   0  0  0  0  0  0  0  0  0  0  0  0
   54.6830  -18.7220   -5.2130 N   0  0  0  0  0  0  0  0  0  0  0  0
   54.0310  -17.8090   -4.2870 C   0  0  2  0  0  0  0  0  0  0  0  0
   53.0200  -18.4990   -3.3810 C   0  0  0  0  0  0  0  0  0  0  0  0
   52.4770  -17.8510   -2.4800 O   0  0  0  0  0  0  0  0  0  0  0  0
   53.3370  -16.6810   -5.0610 C   0  0  0  0  0  0  0  0  0  0  0  0
   52.7550  -19.7850   -3.5960 N   0  0  0  0  0  0  0  0  0  0  0  0
   51.8300  -20.5210   -2.7580 C   0  0  0  0  0  0  0  0  0  0  0  0
   52.4600  -21.7530   -2.1450 C   0  0  0  0  0  0  0  0  0  0  0  0
   53.6860  -21.8450   -2.0470 O   0  0  0  0  0  0  0  0  0  0  0  0
   51.6330  -22.7130   -1.7280 N   0  0  0  0  0  0  0  0  0  0  0  0
   52.1330  -23.9620   -1.1680 C   0  0  2  0  0  0  0  0  0  0  0  0
   52.1850  -25.1000   -2.1770 C   0  0  0  0  0  0  0  0  0  0  0  0
   52.9060  -26.0760   -1.9450 O   0  0  0  0  0  0  0  0  0  0  0  0
   51.2790  -24.3930    0.0310 C   0  0  0  0  0  0  0  0  0  0  0  0
   49.8660  -23.8510   -0.0360 C   0  0  0  0  0  0  0  0  0  0  0  0
   49.4200  -23.1490    0.8720 O   0  0  0  0  0  0  0  0  0  0  0  0
   49.1560  -24.1680   -1.1100 N   0  0  0  0  0  0  0  0  0  0  0  0
   51.4440  -25.0060   -3.2740 N   0  0  0  0  0  0  0  0  0  0  0  0
   51.5010  -26.0420   -4.2990 C   0  0  2  0  0  0  0  0  0  0  0  0
   52.7490  -25.8520   -5.1560 C   0  0  0  0  0  0  0  0  0  0  0  0
   53.0500  -24.7220   -5.5550 O   0  0  0  0  0  0  0  0  0  0  0  0
   50.2530  -26.0040   -5.1780 C   0  0  0  0  0  0  0  0  0  0  0  0
   48.9570  -26.3190   -4.4440 C   0  0  0  0  0  0  0  0  0  0  0  0
   47.7750  -26.2930   -5.3990 C   0  0  0  0  0  0  0  0  0  0  0  0
   46.4670  -26.5760   -4.6810 C   0  0  0  0  0  0  0  0  0  0  0  0
   45.3100  -26.5440   -5.6170 N   0  0  0  0  0  0  0  0  0  0  0  0
   48.6500  -19.6950  -11.5710 N   0  0  0  0  0  0  0  0  0  0  0  0
   48.2480  -19.0860  -10.3110 C   0  0  2  0  0  0  0  0  0  0  0  0
   49.2240  -19.4700   -9.2070 C   0  0  0  0  0  0  0  0  0  0  0  0
   49.6180  -20.6340   -9.0890 O   0  0  0  0  0  0  0  0  0  0  0  0
   46.8290  -19.5160   -9.9380 C   0  0  0  0  0  0  0  0  0  0  0  0
   46.3220  -18.9010   -8.6640 C   0  0  0  0  0  0  0  0  0  0  0  0
   46.1160  -17.5330   -8.5720 C   0  0  0  0  0  0  0  0  0  0  0  0
   46.0360  -19.6920   -7.5640 C   0  0  0  0  0  0  0  0  0  0  0  0
   45.6460  -16.9660   -7.4010 C   0  0  0  0  0  0  0  0  0  0  0  0
   45.5640  -19.1320   -6.3910 C   0  0  0  0  0  0  0  0  0  0  0  0
   45.3690  -17.7670   -6.3090 C   0  0  0  0  0  0  0  0  0  0  0  0
   49.6250  -18.4730   -8.4130 N   0  0  0  0  0  0  0  0  0  0  0  0
   50.6220  -18.6360   -7.3550 C   0  0  2  0  0  0  0  0  0  0  0  0
   51.9490  -19.1500   -7.9040 C   0  0  0  0  0  0  0  0  0  0  0  0
   52.8420  -19.5260   -7.1380 O   0  0  0  0  0  0  0  0  0  0  0  0
   50.1010  -19.5640   -6.2520 C   0  0  0  0  0  0  0  0  0  0  0  0
   49.2300  -18.8360   -5.2480 C   0  0  0  0  0  0  0  0  0  0  0  0
   49.3530  -17.6240   -5.0700 O   0  0  0  0  0  0  0  0  0  0  0  0
   48.3470  -19.5720   -4.5820 N   0  0  0  0  0  0  0  0  0  0  0  0
   54.3860  -17.6620  -10.8640 N   0  0  0  0  0  0  0  0  0  0  0  0
   54.5660  -16.5780  -11.8150 C   0  0  2  0  0  0  0  0  0  0  0  0
   56.0090  -16.5150  -12.2940 C   0  0  0  0  0  0  0  0  0  0  0  0
   56.9420  -16.8840  -11.5740 O   0  0  0  0  0  0  0  0  0  0  0  0
   54.1640  -15.2370  -11.1940 C   0  0  0  0  0  0  0  0  0  0  0  0
   52.7910  -15.2690  -10.5700 C   0  0  0  0  0  0  0  0  0  0  0  0
   51.6510  -15.1670  -11.3550 C   0  0  0  0  0  0  0  0  0  0  0  0
   52.6330  -15.4150   -9.2000 C   0  0  0  0  0  0  0  0  0  0  0  0
   50.3920  -15.2020  -10.7920 C   0  0  0  0  0  0  0  0  0  0  0  0
   51.3770  -15.4490   -8.6270 C   0  0  0  0  0  0  0  0  0  0  0  0
   50.2600  -15.3440   -9.4280 C   0  0  0  0  0  0  0  0  0  0  0  0
   49.0050  -15.3790   -8.8650 O   0  0  0  0  0  0  0  0  0  0  0  0
  2  1  1  6
  3  2  1  0
  4  3  2  0
  5  2  1  0
  6  5  1  0
  7  6  2  0
  8  6  1  0
 10  9  1  1
 11 10  1  0
 12 11  2  0
 13 10  1  0
 14 13  1  0
 15 14  2  0
 16 14  1  0
 17 15  1  0
 18 16  2  0
 19 18  1  0
 19 17  2  0
 20 19  1  0
 22 21  1  1
 23 22  1  0
 24 23  2  0
 25 22  1  0
 26 25  1  0
 27 26  1  0
 28 27  1  0
 29 28  1  0
 30 29  1  0
 31 29  2  0
 32 23  1  0
 33 32  1  0
 34 33  1  0
 35 34  2  0
 33 36  1  6
 37 36  1  0
 38 37  1  0
 39 37  1  0
 40 34  1  0
 41 40  1  0
 42 41  1  0
 43 42  2  0
 41 44  1  6
 45 44  1  0
 46 45  2  0
 47 45  1  0
 48 46  1  0
 49 47  2  0
 50 49  1  0
 50 48  2  0
 51 42  1  0
 52 51  1  0
 53 52  1  0
 54 53  2  0
 52 55  1  1
 56 55  1  0
 57 56  1  0
 58 57  1  0
 59 58  1  0
 60 59  1  0
 61 59  2  0
 62 53  1  0
 63 62  1  0
 64 63  1  0
 65 64  2  0
 63 66  1  6
 67 66  1  0
 68 67  1  0
 69 68  1  0
 70 69  1  0
 72 71  1  6
 73 72  1  0
 74 73  2  0
 75 72  1  0
 76 75  1  0
 77 76  2  0
 78 76  1  0
 79 77  1  0
 80 78  2  0
 81 80  1  0
 81 79  2  0
 82 81  1  0
 83 73  1  0
 84 83  1  0
 85 84  1  0
 86 85  2  0
 84 87  1  1
 88 87  1  0
 89 88  1  0
 90 89  2  0
 91 89  1  0
 92 85  1  0
 93 92  1  0
 94 93  1  0
 95 94  2  0
 93 96  1  6
 97 94  1  0
 98 97  1  0
 99 98  1  0
100 99  2  0
101 99  1  0
102101  1  0
103102  1  0
104103  2  0
102105  1  1
106105  1  0
107106  2  0
108106  1  0
109103  1  0
110109  1  0
111110  1  0
112111  2  0
110113  1  6
114113  1  0
115114  1  0
116115  1  0
117116  1  0
119118  1  6
120119  1  0
121120  2  0
122119  1  0
123122  1  0
124123  2  0
125123  1  0
126124  1  0
127125  2  0
128127  1  0
128126  2  0
129120  1  0
130129  1  0
131130  1  0
132131  2  0
130133  1  1
134133  1  0
135134  2  0
136134  1  0
138137  1  1
139138  1  0
140139  2  0
141138  1  0
142141  1  0
143142  2  0
144142  1  0
145143  1  0
146144  2  0
147146  1  0
147145  2  0
148147  1  0
M  END
$$$$
