
     RDKit          3D

117115  0  0  0  0  0  0  0  0999 V2000
   33.9370    1.1330  -18.2920 N   0  0  0  0  0  0  0  0  0  0  0  0
   33.5430    2.2770  -17.4860 C   0  0  2  0  0  0  0  0  0  0  0  0
   34.4760    3.4590  -17.7510 C   0  0  0  0  0  0  0  0  0  0  0  0
   35.5080    3.3380  -18.4150 O   0  0  0  0  0  0  0  0  0  0  0  0
   33.5410    1.9190  -16.0000 C   0  0  0  0  0  0  0  0  0  0  0  0
   34.8840    2.0820  -15.3180 C   0  0  0  0  0  0  0  0  0  0  0  0
   34.7360    2.0460  -13.8090 C   0  0  0  0  0  0  0  0  0  0  0  0
   33.9710    0.8840  -13.3800 N   0  0  0  0  0  0  0  0  0  0  0  0
   34.4770   -0.1320  -12.6970 C   0  0  0  0  0  0  0  0  0  0  0  0
   35.7470   -0.1520  -12.3280 N   0  0  0  0  0  0  0  0  0  0  0  0
   33.6900   -1.1560  -12.3810 N   0  0  0  0  0  0  0  0  0  0  0  0
   36.3440    5.1320  -15.5980 N   0  0  0  0  0  0  0  0  0  0  0  0
   37.6080    5.0410  -14.8750 C   0  0  2  0  0  0  0  0  0  0  0  0
   38.6280    4.1410  -15.5600 C   0  0  0  0  0  0  0  0  0  0  0  0
   39.7880    4.1170  -15.1350 O   0  0  0  0  0  0  0  0  0  0  0  0
   37.3660    4.5360  -13.4510 C   0  0  0  0  0  0  0  0  0  0  0  0
   36.6440    5.5480  -12.5820 C   0  0  0  0  0  0  0  0  0  0  0  0
   36.6930    6.7510  -12.8370 O   0  0  0  0  0  0  0  0  0  0  0  0
   35.9710    5.0620  -11.5450 N   0  0  0  0  0  0  0  0  0  0  0  0
   38.2350    3.4110  -16.6030 N   0  0  0  0  0  0  0  0  0  0  0  0
   39.0930    2.4150  -17.2270 C   0  0  2  0  0  0  0  0  0  0  0  0
   39.5380    2.7920  -18.6340 C   0  0  0  0  0  0  0  0  0  0  0  0
   40.3310    2.0580  -19.2330 O   0  0  0  0  0  0  0  0  0  0  0  0
   38.3740    1.0610  -17.2550 C   0  0  0  0  0  0  0  0  0  0  0  0
   38.0970    0.4900  -15.8740 C   0  0  0  0  0  0  0  0  0  0  0  0
   37.0810   -0.6330  -15.9010 C   0  0  0  0  0  0  0  0  0  0  0  0
   36.3020   -0.7040  -16.8740 O   0  0  0  0  0  0  0  0  0  0  0  0
   37.0580   -1.4440  -14.9500 O   0  0  0  0  0  0  0  0  0  0  0  0
   32.9590   -7.9960  -17.5580 N   0  0  0  0  0  0  0  0  0  0  0  0
   34.4050   -7.8410  -17.6030 C   0  0  2  0  0  0  0  0  0  0  0  0
   35.0360   -8.9980  -16.8420 C   0  0  0  0  0  0  0  0  0  0  0  0
   34.4170   -9.5950  -15.9580 O   0  0  0  0  0  0  0  0  0  0  0  0
   34.8560   -6.4920  -17.0250 C   0  0  0  0  0  0  0  0  0  0  0  0
   34.6140   -6.3250  -15.5400 C   0  0  0  0  0  0  0  0  0  0  0  0
   33.3580   -5.9880  -15.0540 C   0  0  0  0  0  0  0  0  0  0  0  0
   35.6470   -6.4960  -14.6250 C   0  0  0  0  0  0  0  0  0  0  0  0
   33.1350   -5.8310  -13.7000 C   0  0  0  0  0  0  0  0  0  0  0  0
   35.4320   -6.3430  -13.2690 C   0  0  0  0  0  0  0  0  0  0  0  0
   34.1750   -6.0090  -12.8120 C   0  0  0  0  0  0  0  0  0  0  0  0
   33.9520   -5.8540  -11.4640 O   0  0  0  0  0  0  0  0  0  0  0  0
   32.6040  -10.6730  -14.1410 N   0  0  0  0  0  0  0  0  0  0  0  0
   31.7670   -9.8520  -13.2810 C   0  0  2  0  0  0  0  0  0  0  0  0
   30.9540   -8.8960  -14.1400 C   0  0  0  0  0  0  0  0  0  0  0  0
   31.3650   -8.5240  -15.2430 O   0  0  0  0  0  0  0  0  0  0  0  0
   32.6060   -9.0610  -12.2610 C   0  0  0  0  0  0  0  0  0  0  0  0
   31.7920   -8.4170  -11.1450 C   0  0  0  0  0  0  0  0  0  0  0  0
   31.4560   -9.4220  -10.0530 C   0  0  0  0  0  0  0  0  0  0  0  0
   30.8530   -8.7880   -8.8870 N   0  0  0  0  0  0  0  0  0  0  0  0
   29.6020   -8.9800   -8.4940 C   0  0  0  0  0  0  0  0  0  0  0  0
   28.7960   -9.8070   -9.1380 N   0  0  0  0  0  0  0  0  0  0  0  0
   29.1530   -8.3360   -7.4210 N   0  0  0  0  0  0  0  0  0  0  0  0
   29.8020   -8.4880  -13.6190 N   0  0  0  0  0  0  0  0  0  0  0  0
   28.9180   -7.5850  -14.3370 C   0  0  2  0  0  0  0  0  0  0  0  0
   29.2360   -6.1350  -13.9920 C   0  0  0  0  0  0  0  0  0  0  0  0
   29.7780   -5.8230  -12.9290 O   0  0  0  0  0  0  0  0  0  0  0  0
   27.4560   -7.8910  -14.0120 C   0  0  0  0  0  0  0  0  0  0  0  0
   27.1190   -9.2190  -14.3720 O   0  0  0  0  0  0  0  0  0  0  0  0
   28.8830   -5.2420  -14.9140 N   0  0  0  0  0  0  0  0  0  0  0  0
   29.1270   -3.8200  -14.7180 C   0  0  2  0  0  0  0  0  0  0  0  0
   27.9760   -3.1190  -14.0130 C   0  0  0  0  0  0  0  0  0  0  0  0
   28.2150   -2.2000  -13.2210 O   0  0  0  0  0  0  0  0  0  0  0  0
   29.3970   -3.1440  -16.0650 C   0  0  0  0  0  0  0  0  0  0  0  0
   30.8610   -3.0790  -16.4310 C   0  0  0  0  0  0  0  0  0  0  0  0
   31.8150   -2.7100  -15.4900 C   0  0  0  0  0  0  0  0  0  0  0  0
   31.2920   -3.3910  -17.7150 C   0  0  0  0  0  0  0  0  0  0  0  0
   33.1550   -2.6480  -15.8190 C   0  0  0  0  0  0  0  0  0  0  0  0
   32.6310   -3.3330  -18.0530 C   0  0  0  0  0  0  0  0  0  0  0  0
   33.5580   -2.9620  -17.1010 C   0  0  0  0  0  0  0  0  0  0  0  0
   34.8920   -2.9020  -17.4290 O   0  0  0  0  0  0  0  0  0  0  0  0
   24.1180    1.9250  -14.2660 N   0  0  0  0  0  0  0  0  0  0  0  0
   22.9470    2.7200  -13.9440 C   0  0  2  0  0  0  0  0  0  0  0  0
   23.1610    4.1610  -14.3920 C   0  0  0  0  0  0  0  0  0  0  0  0
   24.2790    4.6780  -14.2950 O   0  0  0  0  0  0  0  0  0  0  0  0
   22.6520    2.6850  -12.4390 C   0  0  0  0  0  0  0  0  0  0  0  0
   22.7880    1.2950  -11.8320 C   0  0  0  0  0  0  0  0  0  0  0  0
   21.7630    1.0430  -10.7360 C   0  0  0  0  0  0  0  0  0  0  0  0
   21.8260   -0.3300  -10.2490 N   0  0  0  0  0  0  0  0  0  0  0  0
   21.1370   -0.7930   -9.2140 C   0  0  0  0  0  0  0  0  0  0  0  0
   20.3070   -0.0200   -8.5340 N   0  0  0  0  0  0  0  0  0  0  0  0
   21.2830   -2.0650   -8.8540 N   0  0  0  0  0  0  0  0  0  0  0  0
   24.7990    6.7750  -11.9420 N   0  0  0  0  0  0  0  0  0  0  0  0
   26.1340    6.5420  -11.4160 C   0  0  2  0  0  0  0  0  0  0  0  0
   27.0290    7.7570  -11.6540 C   0  0  0  0  0  0  0  0  0  0  0  0
   26.6660    8.7170  -12.3410 O   0  0  0  0  0  0  0  0  0  0  0  0
   26.7640    5.3090  -12.0660 C   0  0  0  0  0  0  0  0  0  0  0  0
   26.4800    4.0010  -11.3640 C   0  0  0  0  0  0  0  0  0  0  0  0
   25.7790    3.9660  -10.1660 C   0  0  0  0  0  0  0  0  0  0  0  0
   26.9280    2.7990  -11.8950 C   0  0  0  0  0  0  0  0  0  0  0  0
   25.5230    2.7670   -9.5220 C   0  0  0  0  0  0  0  0  0  0  0  0
   26.6790    1.5980  -11.2580 C   0  0  0  0  0  0  0  0  0  0  0  0
   25.9750    1.5870  -10.0740 C   0  0  0  0  0  0  0  0  0  0  0  0
   25.7270    0.3910   -9.4390 O   0  0  0  0  0  0  0  0  0  0  0  0
   28.2250    7.7000  -11.0750 N   0  0  0  0  0  0  0  0  0  0  0  0
   29.2190    8.7160  -11.3410 C   0  0  0  0  0  0  0  0  0  0  0  0
   29.7790    8.6030  -12.7450 C   0  0  0  0  0  0  0  0  0  0  0  0
   29.7440    7.5470  -13.3760 O   0  0  0  0  0  0  0  0  0  0  0  0
   30.2880    9.7350  -13.2430 N   0  0  0  0  0  0  0  0  0  0  0  0
   30.8360    9.7880  -14.5980 C   0  0  2  0  0  0  0  0  0  0  0  0
   31.8590    8.6810  -14.8110 C   0  0  0  0  0  0  0  0  0  0  0  0
   31.8700    8.0160  -15.8550 O   0  0  0  0  0  0  0  0  0  0  0  0
   31.4430   11.1760  -14.8740 C   0  0  0  0  0  0  0  0  0  0  0  0
   31.6210   11.3860  -16.3680 C   0  0  0  0  0  0  0  0  0  0  0  0
   30.5620   12.2650  -14.2770 C   0  0  0  0  0  0  0  0  0  0  0  0
   32.7380    8.4690  -13.8300 N   0  0  0  0  0  0  0  0  0  0  0  0
   33.7410    7.4240  -13.9360 C   0  0  0  0  0  0  0  0  0  0  0  0
   33.1720    6.0200  -13.9800 C   0  0  0  0  0  0  0  0  0  0  0  0
   33.8390    5.1050  -14.4740 O   0  0  0  0  0  0  0  0  0  0  0  0
   31.9580    5.8240  -13.4670 N   0  0  0  0  0  0  0  0  0  0  0  0
   31.3150    4.5160  -13.4630 C   0  0  2  0  0  0  0  0  0  0  0  0
   30.1880    4.4110  -14.4830 C   0  0  0  0  0  0  0  0  0  0  0  0
   29.4030    3.4580  -14.4300 O   0  0  0  0  0  0  0  0  0  0  0  0
   30.7880    4.1940  -12.0640 C   0  0  0  0  0  0  0  0  0  0  0  0
   31.8650    4.0200  -11.0400 C   0  0  0  0  0  0  0  0  0  0  0  0
   32.3850    2.7870  -10.7090 N   0  0  0  0  0  0  0  0  0  0  0  0
   32.5280    4.9240  -10.2800 C   0  0  0  0  0  0  0  0  0  0  0  0
   33.3170    2.9380   -9.7850 C   0  0  0  0  0  0  0  0  0  0  0  0
   33.4240    4.2250   -9.5080 N   0  0  0  0  0  0  0  0  0  0  0  0
  2  1  1  6
  3  2  1  0
  4  3  2  0
  5  2  1  0
  6  5  1  0
  7  6  1  0
  8  7  1  0
  9  8  1  0
 10  9  1  0
 11  9  2  0
 13 12  1  6
 14 13  1  0
 15 14  2  0
 16 13  1  0
 17 16  1  0
 18 17  2  0
 19 17  1  0
 20 14  1  0
 21 20  1  0
 22 21  1  0
 23 22  2  0
 21 24  1  6
 25 24  1  0
 26 25  1  0
 27 26  2  0
 28 26  1  0
 30 29  1  1
 31 30  1  0
 32 31  2  0
 33 30  1  0
 34 33  1  0
 35 34  2  0
 36 34  1  0
 37 35  1  0
 38 36  2  0
 39 38  1  0
 39 37  2  0
 40 39  1  0
 42 41  1  6
 43 42  1  0
 44 43  2  0
 45 42  1  0
 46 45  1  0
 47 46  1  0
 48 47  1  0
 49 48  1  0
 50 49  1  0
 51 49  2  0
 52 43  1  0
 53 52  1  0
 54 53  1  0
 55 54  2  0
 53 56  1  1
 57 56  1  0
 58 54  1  0
 59 58  1  0
 60 59  1  0
 61 60  2  0
 59 62  1  6
 63 62  1  0
 64 63  2  0
 65 63  1  0
 66 64  1  0
 67 65  2  0
 68 67  1  0
 68 66  2  0
 69 68  1  0
 71 70  1  1
 72 71  1  0
 73 72  2  0
 74 71  1  0
 75 74  1  0
 76 75  1  0
 77 76  1  0
 78 77  1  0
 79 78  1  0
 80 78  2  0
 82 81  1  6
 83 82  1  0
 84 83  2  0
 85 82  1  0
 86 85  1  0
 87 86  2  0
 88 86  1  0
 89 87  1  0
 90 88  2  0
 91 90  1  0
 91 89  2  0
 92 91  1  0
 93 83  1  0
 94 93  1  0
 95 94  1  0
 96 95  2  0
 97 95  1  0
 98 97  1  1
 99 98  1  0
100 99  2  0
101 98  1  0
102101  1  0
103101  1  0
104 99  1  0
105104  1  0
106105  1  0
107106  2  0
108106  1  0
109108  1  0
110109  1  0
111110  2  0
109112  1  1
113112  1  0
114113  1  0
115113  2  0
116114  2  0
117115  1  0
117116  1  0
M  END
$$$$
