
     RDKit          3D

148147  0  0  0  0  0  0  0  0999 V2000
   43.0220   -4.1450  -14.3070 N   0  0  0  0  0  0  0  0  0  0  0  0
   42.2200   -5.3340  -14.5830 C   0  0  2  0  0  0  0  0  0  0  0  0
   41.7980   -5.3880  -16.0460 C   0  0  0  0  0  0  0  0  0  0  0  0
   41.7430   -6.4680  -16.6460 O   0  0  0  0  0  0  0  0  0  0  0  0
   40.9990   -5.3760  -13.6640 C   0  0  0  0  0  0  0  0  0  0  0  0
   40.2690   -4.0500  -13.5990 C   0  0  0  0  0  0  0  0  0  0  0  0
   40.5350   -3.1400  -14.3820 O   0  0  0  0  0  0  0  0  0  0  0  0
   39.3370   -3.9360  -12.6590 N   0  0  0  0  0  0  0  0  0  0  0  0
   43.7520   -8.1990  -18.2620 N   0  0  0  0  0  0  0  0  0  0  0  0
   42.8890   -9.3690  -18.3410 C   0  0  2  0  0  0  0  0  0  0  0  0
   41.7690   -9.2620  -19.3680 C   0  0  0  0  0  0  0  0  0  0  0  0
   40.9960  -10.2170  -19.5100 O   0  0  0  0  0  0  0  0  0  0  0  0
   42.2710   -9.6650  -16.9670 C   0  0  0  0  0  0  0  0  0  0  0  0
   43.2780   -9.8640  -15.8560 C   0  0  0  0  0  0  0  0  0  0  0  0
   44.4870  -10.5060  -16.0930 C   0  0  0  0  0  0  0  0  0  0  0  0
   43.0200   -9.4070  -14.5710 C   0  0  0  0  0  0  0  0  0  0  0  0
   45.4100  -10.6870  -15.0810 C   0  0  0  0  0  0  0  0  0  0  0  0
   43.9370   -9.5840  -13.5520 C   0  0  0  0  0  0  0  0  0  0  0  0
   45.1300  -10.2250  -13.8130 C   0  0  0  0  0  0  0  0  0  0  0  0
   46.0430  -10.4020  -12.8010 O   0  0  0  0  0  0  0  0  0  0  0  0
   36.2800   -9.3100  -17.1970 N   0  0  0  0  0  0  0  0  0  0  0  0
   37.0100  -10.4010  -16.5660 C   0  0  2  0  0  0  0  0  0  0  0  0
   37.7270   -9.8900  -15.3230 C   0  0  0  0  0  0  0  0  0  0  0  0
   38.4620   -8.9000  -15.3840 O   0  0  0  0  0  0  0  0  0  0  0  0
   38.0100  -11.0220  -17.5420 C   0  0  0  0  0  0  0  0  0  0  0  0
   38.8860  -12.1020  -16.9290 C   0  0  0  0  0  0  0  0  0  0  0  0
   39.6990  -12.8280  -17.9880 C   0  0  0  0  0  0  0  0  0  0  0  0
   38.8490  -13.4230  -19.0120 N   0  0  0  0  0  0  0  0  0  0  0  0
   38.2630  -14.6070  -18.9000 C   0  0  0  0  0  0  0  0  0  0  0  0
   38.4190  -15.3560  -17.8200 N   0  0  0  0  0  0  0  0  0  0  0  0
   37.5000  -15.0500  -19.8950 N   0  0  0  0  0  0  0  0  0  0  0  0
   37.5070  -10.5680  -14.1980 N   0  0  0  0  0  0  0  0  0  0  0  0
   38.1010  -10.1900  -12.9220 C   0  0  2  0  0  0  0  0  0  0  0  0
   39.3000  -11.0480  -12.5380 C   0  0  0  0  0  0  0  0  0  0  0  0
   40.2720  -10.5250  -11.9830 O   0  0  0  0  0  0  0  0  0  0  0  0
   37.0500  -10.2640  -11.8090 C   0  0  0  0  0  0  0  0  0  0  0  0
   37.4730   -9.7100  -10.4480 C   0  0  0  0  0  0  0  0  0  0  0  0
   37.8910   -8.2510  -10.5670 C   0  0  0  0  0  0  0  0  0  0  0  0
   36.3540   -9.8710   -9.4370 C   0  0  0  0  0  0  0  0  0  0  0  0
   39.2600  -12.3480  -12.8210 N   0  0  0  0  0  0  0  0  0  0  0  0
   40.3070  -13.2760  -12.4170 C   0  0  2  0  0  0  0  0  0  0  0  0
   40.9590  -13.8910  -13.6460 C   0  0  0  0  0  0  0  0  0  0  0  0
   40.2650  -14.3100  -14.5780 O   0  0  0  0  0  0  0  0  0  0  0  0
   39.7500  -14.3810  -11.5150 C   0  0  0  0  0  0  0  0  0  0  0  0
   39.1560  -13.8780  -10.2320 C   0  0  0  0  0  0  0  0  0  0  0  0
   39.9690  -13.3760   -9.2280 C   0  0  0  0  0  0  0  0  0  0  0  0
   37.7870  -13.9180  -10.0220 C   0  0  0  0  0  0  0  0  0  0  0  0
   39.4250  -12.9110   -8.0430 C   0  0  0  0  0  0  0  0  0  0  0  0
   37.2380  -13.4570   -8.8400 C   0  0  0  0  0  0  0  0  0  0  0  0
   38.0580  -12.9530   -7.8490 C   0  0  0  0  0  0  0  0  0  0  0  0
   42.2900  -13.9410  -13.6410 N   0  0  0  0  0  0  0  0  0  0  0  0
   43.0500  -14.6270  -14.6740 C   0  0  2  0  0  0  0  0  0  0  0  0
   44.4290  -14.9460  -14.1160 C   0  0  0  0  0  0  0  0  0  0  0  0
   45.0050  -14.1410  -13.3800 O   0  0  0  0  0  0  0  0  0  0  0  0
   43.1660  -13.7840  -15.9490 C   0  0  0  0  0  0  0  0  0  0  0  0
   43.4680  -14.6050  -17.1900 C   0  0  0  0  0  0  0  0  0  0  0  0
   43.4830  -13.7510  -18.4430 C   0  0  0  0  0  0  0  0  0  0  0  0
   43.4870  -14.5700  -19.6500 N   0  0  0  0  0  0  0  0  0  0  0  0
   44.5770  -15.0750  -20.2110 C   0  0  0  0  0  0  0  0  0  0  0  0
   45.7790  -14.8650  -19.7000 N   0  0  0  0  0  0  0  0  0  0  0  0
   44.4580  -15.8060  -21.3160 N   0  0  0  0  0  0  0  0  0  0  0  0
   44.9510  -16.1240  -14.4700 N   0  0  0  0  0  0  0  0  0  0  0  0
   46.2160  -16.5690  -13.8930 C   0  0  2  0  0  0  0  0  0  0  0  0
   47.3900  -15.7250  -14.3710 C   0  0  0  0  0  0  0  0  0  0  0  0
   48.3520  -15.5270  -13.6190 O   0  0  0  0  0  0  0  0  0  0  0  0
   46.4620  -18.0410  -14.2260 C   0  0  0  0  0  0  0  0  0  0  0  0
   45.4190  -18.9930  -13.6670 C   0  0  0  0  0  0  0  0  0  0  0  0
   45.6460  -20.4170  -14.1460 C   0  0  0  0  0  0  0  0  0  0  0  0
   44.5630  -21.3500  -13.6260 C   0  0  0  0  0  0  0  0  0  0  0  0
   44.7380  -22.7440  -14.1200 N   0  0  0  0  0  0  0  0  0  0  0  0
   37.6550  -20.0140  -11.8590 N   0  0  0  0  0  0  0  0  0  0  0  0
   39.0340  -19.6710  -11.5450 C   0  0  2  0  0  0  0  0  0  0  0  0
   39.4460  -20.3120  -10.2270 C   0  0  0  0  0  0  0  0  0  0  0  0
   38.7580  -20.1720   -9.2110 O   0  0  0  0  0  0  0  0  0  0  0  0
   39.1980  -18.1550  -11.4720 C   0  0  0  0  0  0  0  0  0  0  0  0
   40.6270  -17.7040  -11.2860 C   0  0  0  0  0  0  0  0  0  0  0  0
   41.5220  -17.7180  -12.3480 C   0  0  0  0  0  0  0  0  0  0  0  0
   41.0820  -17.2680  -10.0490 C   0  0  0  0  0  0  0  0  0  0  0  0
   42.8280  -17.3050  -12.1840 C   0  0  0  0  0  0  0  0  0  0  0  0
   42.3870  -16.8540   -9.8750 C   0  0  0  0  0  0  0  0  0  0  0  0
   43.2570  -16.8750  -10.9460 C   0  0  0  0  0  0  0  0  0  0  0  0
   44.5610  -16.4650  -10.7810 O   0  0  0  0  0  0  0  0  0  0  0  0
   40.5760  -21.0150  -10.2460 N   0  0  0  0  0  0  0  0  0  0  0  0
   41.0760  -21.7270   -9.0730 C   0  0  2  0  0  0  0  0  0  0  0  0
   42.0340  -20.8040   -8.3320 C   0  0  0  0  0  0  0  0  0  0  0  0
   43.1850  -20.6250   -8.7380 O   0  0  0  0  0  0  0  0  0  0  0  0
   41.7490  -23.0320   -9.4850 C   0  0  0  0  0  0  0  0  0  0  0  0
   42.2920  -23.8580   -8.3320 C   0  0  0  0  0  0  0  0  0  0  0  0
   42.8820  -25.1780   -8.7900 C   0  0  0  0  0  0  0  0  0  0  0  0
   42.5440  -25.6830   -9.8610 O   0  0  0  0  0  0  0  0  0  0  0  0
   43.7700  -25.7440   -7.9800 N   0  0  0  0  0  0  0  0  0  0  0  0
   41.5570  -20.2160   -7.2370 N   0  0  0  0  0  0  0  0  0  0  0  0
   42.3580  -19.2920   -6.4490 C   0  0  2  0  0  0  0  0  0  0  0  0
   43.0890  -19.9660   -5.2970 C   0  0  0  0  0  0  0  0  0  0  0  0
   43.8950  -19.3110   -4.6280 O   0  0  0  0  0  0  0  0  0  0  0  0
   41.4780  -18.1660   -5.9020 C   0  0  0  0  0  0  0  0  0  0  0  0
   42.8280  -21.2470   -5.0500 N   0  0  0  0  0  0  0  0  0  0  0  0
   43.5280  -21.9740   -4.0120 C   0  0  0  0  0  0  0  0  0  0  0  0
   44.2470  -23.1900   -4.5540 C   0  0  0  0  0  0  0  0  0  0  0  0
   44.4820  -23.2900   -5.7620 O   0  0  0  0  0  0  0  0  0  0  0  0
   44.5980  -24.1250   -3.6720 N   0  0  0  0  0  0  0  0  0  0  0  0
   45.2490  -25.3610   -4.0840 C   0  0  2  0  0  0  0  0  0  0  0  0
   44.2610  -26.4730   -4.3990 C   0  0  0  0  0  0  0  0  0  0  0  0
   44.5950  -27.3800   -5.1710 O   0  0  0  0  0  0  0  0  0  0  0  0
   46.2260  -25.8350   -3.0020 C   0  0  0  0  0  0  0  0  0  0  0  0
   45.5440  -26.0960   -1.6740 C   0  0  0  0  0  0  0  0  0  0  0  0
   44.4130  -25.6670   -1.4480 O   0  0  0  0  0  0  0  0  0  0  0  0
   46.2290  -26.8090   -0.7870 N   0  0  0  0  0  0  0  0  0  0  0  0
   43.0630  -26.4250   -3.8270 N   0  0  0  0  0  0  0  0  0  0  0  0
   42.0590  -27.4480   -4.0890 C   0  0  2  0  0  0  0  0  0  0  0  0
   41.4510  -27.2300   -5.4700 C   0  0  0  0  0  0  0  0  0  0  0  0
   41.0730  -26.1010   -5.8010 O   0  0  0  0  0  0  0  0  0  0  0  0
   40.9700  -27.4130   -3.0210 C   0  0  0  0  0  0  0  0  0  0  0  0
   41.4830  -27.6530   -1.6100 C   0  0  0  0  0  0  0  0  0  0  0  0
   40.3550  -27.6210   -0.5920 C   0  0  0  0  0  0  0  0  0  0  0  0
   40.8820  -27.8750    0.8110 C   0  0  0  0  0  0  0  0  0  0  0  0
   39.8000  -27.8630    1.8320 N   0  0  0  0  0  0  0  0  0  0  0  0
   34.1530  -21.1850   -2.5470 N   0  0  0  0  0  0  0  0  0  0  0  0
   35.3300  -20.5740   -1.9460 C   0  0  2  0  0  0  0  0  0  0  0  0
   36.5810  -20.9920   -2.7050 C   0  0  0  0  0  0  0  0  0  0  0  0
   36.7440  -22.1630   -3.0600 O   0  0  0  0  0  0  0  0  0  0  0  0
   35.4600  -20.9610   -0.4720 C   0  0  0  0  0  0  0  0  0  0  0  0
   36.6180  -20.3030    0.2230 C   0  0  0  0  0  0  0  0  0  0  0  0
   36.6280  -18.9330    0.4360 C   0  0  0  0  0  0  0  0  0  0  0  0
   37.7020  -21.0500    0.6530 C   0  0  0  0  0  0  0  0  0  0  0  0
   37.6930  -18.3230    1.0720 C   0  0  0  0  0  0  0  0  0  0  0  0
   38.7700  -20.4450    1.2890 C   0  0  0  0  0  0  0  0  0  0  0  0
   38.7660  -19.0810    1.4980 C   0  0  0  0  0  0  0  0  0  0  0  0
   37.4600  -20.0220   -2.9560 N   0  0  0  0  0  0  0  0  0  0  0  0
   38.6640  -20.1840   -3.7690 C   0  0  2  0  0  0  0  0  0  0  0  0
   38.3580  -20.6830   -5.1750 C   0  0  0  0  0  0  0  0  0  0  0  0
   39.2770  -21.0710   -5.9060 O   0  0  0  0  0  0  0  0  0  0  0  0
   39.6830  -21.1110   -3.0940 C   0  0  0  0  0  0  0  0  0  0  0  0
   40.4440  -20.4230   -1.9790 C   0  0  0  0  0  0  0  0  0  0  0  0
   40.5690  -19.1980   -1.9640 O   0  0  0  0  0  0  0  0  0  0  0  0
   40.9620  -21.2080   -1.0420 N   0  0  0  0  0  0  0  0  0  0  0  0
   35.9790  -19.1110   -8.0070 N   0  0  0  0  0  0  0  0  0  0  0  0
   35.0990  -18.0100   -8.3610 C   0  0  2  0  0  0  0  0  0  0  0  0
   34.9290  -17.9220   -9.8710 C   0  0  0  0  0  0  0  0  0  0  0  0
   35.8220  -18.2910  -10.6390 O   0  0  0  0  0  0  0  0  0  0  0  0
   35.6420  -16.6840   -7.8190 C   0  0  0  0  0  0  0  0  0  0  0  0
   35.9740  -16.7340   -6.3460 C   0  0  0  0  0  0  0  0  0  0  0  0
   34.9730  -16.6480   -5.3870 C   0  0  0  0  0  0  0  0  0  0  0  0
   37.2860  -16.8740   -5.9130 C   0  0  0  0  0  0  0  0  0  0  0  0
   35.2680  -16.6980   -4.0400 C   0  0  0  0  0  0  0  0  0  0  0  0
   37.5910  -16.9230   -4.5660 C   0  0  0  0  0  0  0  0  0  0  0  0
   36.5780  -16.8360   -3.6340 C   0  0  0  0  0  0  0  0  0  0  0  0
   36.8740  -16.8840   -2.2920 O   0  0  0  0  0  0  0  0  0  0  0  0
  2  1  1  6
  3  2  1  0
  4  3  2  0
  5  2  1  0
  6  5  1  0
  7  6  2  0
  8  6  1  0
 10  9  1  1
 11 10  1  0
 12 11  2  0
 13 10  1  0
 14 13  1  0
 15 14  2  0
 16 14  1  0
 17 15  1  0
 18 16  2  0
 19 18  1  0
 19 17  2  0
 20 19  1  0
 22 21  1  6
 23 22  1  0
 24 23  2  0
 25 22  1  0
 26 25  1  0
 27 26  1  0
 28 27  1  0
 29 28  1  0
 30 29  1  0
 31 29  2  0
 32 23  1  0
 33 32  1  0
 34 33  1  0
 35 34  2  0
 33 36  1  1
 37 36  1  0
 38 37  1  0
 39 37  1  0
 40 34  1  0
 41 40  1  0
 42 41  1  0
 43 42  2  0
 41 44  1  1
 45 44  1  0
 46 45  2  0
 47 45  1  0
 48 46  1  0
 49 47  2  0
 50 49  1  0
 50 48  2  0
 51 42  1  0
 52 51  1  0
 53 52  1  0
 54 53  2  0
 52 55  1  6
 56 55  1  0
 57 56  1  0
 58 57  1  0
 59 58  1  0
 60 59  1  0
 61 59  2  0
 62 53  1  0
 63 62  1  0
 64 63  1  0
 65 64  2  0
 63 66  1  6
 67 66  1  0
 68 67  1  0
 69 68  1  0
 70 69  1  0
 72 71  1  1
 73 72  1  0
 74 73  2  0
 75 72  1  0
 76 75  1  0
 77 76  2  0
 78 76  1  0
 79 77  1  0
 80 78  2  0
 81 79  2  0
 81 80  1  0
 82 81  1  0
 83 73  1  0
 84 83  1  0
 85 84  1  0
 86 85  2  0
 84 87  1  6
 88 87  1  0
 89 88  1  0
 90 89  2  0
 91 89  1  0
 92 85  1  0
 93 92  1  0
 94 93  1  0
 95 94  2  0
 93 96  1  1
 97 94  1  0
 98 97  1  0
 99 98  1  0
100 99  2  0
101 99  1  0
102101  1  0
103102  1  0
104103  2  0
102105  1  1
106105  1  0
107106  2  0
108106  1  0
109103  1  0
110109  1  0
111110  1  0
112111  2  0
110113  1  1
114113  1  0
115114  1  0
116115  1  0
117116  1  0
119118  1  6
120119  1  0
121120  2  0
122119  1  0
123122  1  0
124123  2  0
125123  1  0
126124  1  0
127125  2  0
128126  2  0
128127  1  0
129120  1  0
130129  1  0
131130  1  0
132131  2  0
130133  1  1
134133  1  0
135134  2  0
136134  1  0
138137  1  6
139138  1  0
140139  2  0
141138  1  0
142141  1  0
143142  2  0
144142  1  0
145143  1  0
146144  2  0
147146  1  0
147145  2  0
148147  1  0
M  END
$$$$
