
     RDKit          3D

134127  0  0  0  0  0  0  0  0999 V2000
   10.4880   -6.5170  -17.9750 N   0  0  0  0  0  0  0  0  0  0  0  0
   11.7730   -6.7160  -18.6400 C   0  0  2  0  0  0  0  0  0  0  0  0
   12.9220   -6.6940  -17.6390 C   0  0  0  0  0  0  0  0  0  0  0  0
   13.8150   -7.5480  -17.6850 O   0  0  0  0  0  0  0  0  0  0  0  0
   11.9760   -5.6500  -19.7180 C   0  0  0  0  0  0  0  0  0  0  0  0
   11.0300   -5.7620  -20.9070 C   0  0  0  0  0  0  0  0  0  0  0  0
   11.4230   -6.8650  -21.8720 C   0  0  0  0  0  0  0  0  0  0  0  0
   12.5720   -7.3490  -21.7920 O   0  0  0  0  0  0  0  0  0  0  0  0
   10.5830   -7.2470  -22.7140 O   0  0  0  0  0  0  0  0  0  0  0  0
   13.1720   -9.9800  -15.6670 N   0  0  0  0  0  0  0  0  0  0  0  0
   13.8450  -11.0720  -16.3620 C   0  0  2  0  0  0  0  0  0  0  0  0
   15.3570  -10.9020  -16.2760 C   0  0  0  0  0  0  0  0  0  0  0  0
   16.0890  -11.8650  -16.0200 O   0  0  0  0  0  0  0  0  0  0  0  0
   13.3630  -11.1550  -17.8220 C   0  0  0  0  0  0  0  0  0  0  0  0
   14.0610  -12.2940  -18.5460 C   0  0  0  0  0  0  0  0  0  0  0  0
   11.8530  -11.3360  -17.8720 C   0  0  0  0  0  0  0  0  0  0  0  0
   15.8480   -9.6760  -16.4790 N   0  0  0  0  0  0  0  0  0  0  0  0
   17.2780   -9.4230  -16.3300 C   0  0  2  0  0  0  0  0  0  0  0  0
   17.7290   -9.6010  -14.8880 C   0  0  0  0  0  0  0  0  0  0  0  0
   18.8820   -9.9740  -14.6420 O   0  0  0  0  0  0  0  0  0  0  0  0
   17.6200   -8.0170  -16.8220 C   0  0  0  0  0  0  0  0  0  0  0  0
   17.3610   -7.8840  -18.2090 O   0  0  0  0  0  0  0  0  0  0  0  0
   18.4880  -13.3120  -14.5070 N   0  0  0  0  0  0  0  0  0  0  0  0
   19.7360  -13.7010  -15.1540 C   0  0  2  0  0  0  0  0  0  0  0  0
   20.9420  -13.1900  -14.3770 C   0  0  0  0  0  0  0  0  0  0  0  0
   21.9590  -13.8850  -14.2730 O   0  0  0  0  0  0  0  0  0  0  0  0
   19.7660  -13.1860  -16.5930 C   0  0  0  0  0  0  0  0  0  0  0  0
   21.0440  -13.4710  -17.3830 C   0  0  0  0  0  0  0  0  0  0  0  0
   21.3370  -14.9650  -17.4120 C   0  0  0  0  0  0  0  0  0  0  0  0
   20.9390  -12.9130  -18.7940 C   0  0  0  0  0  0  0  0  0  0  0  0
   21.4660  -15.4390  -11.5880 N   0  0  0  0  0  0  0  0  0  0  0  0
   22.0200  -16.7010  -12.0660 C   0  0  2  0  0  0  0  0  0  0  0  0
   23.5010  -16.5620  -12.4020 C   0  0  0  0  0  0  0  0  0  0  0  0
   24.3040  -17.4440  -12.0760 O   0  0  0  0  0  0  0  0  0  0  0  0
   21.2260  -17.1820  -13.2790 C   0  0  0  0  0  0  0  0  0  0  0  0
   21.7890  -18.4100  -13.9630 C   0  0  0  0  0  0  0  0  0  0  0  0
   20.9600  -18.7500  -15.1870 C   0  0  0  0  0  0  0  0  0  0  0  0
   21.7560  -19.5490  -16.2020 C   0  0  0  0  0  0  0  0  0  0  0  0
   21.1140  -19.4880  -17.5460 N   0  0  0  0  0  0  0  0  0  0  0  0
   30.6960  -20.3650  -21.5180 N   0  0  0  0  0  0  0  0  0  0  0  0
   29.2570  -20.1890  -21.3590 C   0  0  2  0  0  0  0  0  0  0  0  0
   28.9380  -18.9600  -20.5190 C   0  0  0  0  0  0  0  0  0  0  0  0
   27.9730  -18.2410  -20.8030 O   0  0  0  0  0  0  0  0  0  0  0  0
   28.6380  -21.4400  -20.7370 C   0  0  0  0  0  0  0  0  0  0  0  0
   29.1670  -15.8940  -22.6310 N   0  0  0  0  0  0  0  0  0  0  0  0
   28.0190  -15.6980  -23.5100 C   0  0  2  0  0  0  0  0  0  0  0  0
   26.8160  -15.1690  -22.7400 C   0  0  0  0  0  0  0  0  0  0  0  0
   26.0890  -14.3010  -23.2360 O   0  0  0  0  0  0  0  0  0  0  0  0
   27.6740  -17.0100  -24.2170 C   0  0  0  0  0  0  0  0  0  0  0  0
   26.5990  -16.9560  -25.3050 C   0  0  0  0  0  0  0  0  0  0  0  0
   27.0730  -16.1310  -26.4920 C   0  0  0  0  0  0  0  0  0  0  0  0
   26.2050  -18.3590  -25.7440 C   0  0  0  0  0  0  0  0  0  0  0  0
   26.5900  -15.6810  -21.5260 N   0  0  0  0  0  0  0  0  0  0  0  0
   25.4800  -15.1920  -20.7130 C   0  0  2  0  0  0  0  0  0  0  0  0
   25.6640  -13.7230  -20.3550 C   0  0  0  0  0  0  0  0  0  0  0  0
   24.7100  -12.9380  -20.4110 O   0  0  0  0  0  0  0  0  0  0  0  0
   25.3430  -16.0310  -19.4410 C   0  0  0  0  0  0  0  0  0  0  0  0
   24.9620  -17.4720  -19.7220 C   0  0  0  0  0  0  0  0  0  0  0  0
   24.7550  -17.8210  -20.9020 O   0  0  0  0  0  0  0  0  0  0  0  0
   24.8690  -18.2580  -18.7550 O   0  0  0  0  0  0  0  0  0  0  0  0
   27.4760  -11.3690  -21.9320 N   0  0  0  0  0  0  0  0  0  0  0  0
   27.2610  -10.5540  -23.1230 C   0  0  2  0  0  0  0  0  0  0  0  0
   25.7770  -10.4580  -23.4540 C   0  0  0  0  0  0  0  0  0  0  0  0
   25.2860   -9.3920  -23.8450 O   0  0  0  0  0  0  0  0  0  0  0  0
   28.0380  -11.1360  -24.3040 C   0  0  0  0  0  0  0  0  0  0  0  0
   27.9120  -10.3380  -25.5910 C   0  0  0  0  0  0  0  0  0  0  0  0
   28.1550  -11.2220  -26.8030 C   0  0  0  0  0  0  0  0  0  0  0  0
   29.3580  -10.8520  -27.5390 N   0  0  0  0  0  0  0  0  0  0  0  0
   29.8240  -11.5160  -28.5880 C   0  0  0  0  0  0  0  0  0  0  0  0
   29.2160  -12.5990  -29.0450 N   0  0  0  0  0  0  0  0  0  0  0  0
   30.9290  -11.0860  -29.1920 N   0  0  0  0  0  0  0  0  0  0  0  0
   25.0480  -11.5650  -23.2970 N   0  0  0  0  0  0  0  0  0  0  0  0
   23.6100  -11.5530  -23.5360 C   0  0  2  0  0  0  0  0  0  0  0  0
   22.8940  -10.6690  -22.5210 C   0  0  0  0  0  0  0  0  0  0  0  0
   21.9160   -9.9910  -22.8590 O   0  0  0  0  0  0  0  0  0  0  0  0
   23.0700  -12.9820  -23.4880 C   0  0  0  0  0  0  0  0  0  0  0  0
   21.7270  -13.1240  -24.1710 C   0  0  0  0  0  0  0  0  0  0  0  0
   21.2130  -12.1140  -24.6940 O   0  0  0  0  0  0  0  0  0  0  0  0
   21.1890  -14.2510  -24.1880 O   0  0  0  0  0  0  0  0  0  0  0  0
   23.3690  -10.6620  -21.2740 N   0  0  0  0  0  0  0  0  0  0  0  0
   22.7720   -9.8040  -20.2560 C   0  0  2  0  0  0  0  0  0  0  0  0
   23.0330   -8.3330  -20.5520 C   0  0  0  0  0  0  0  0  0  0  0  0
   22.1270   -7.5000  -20.4290 O   0  0  0  0  0  0  0  0  0  0  0  0
   23.3130  -10.1760  -18.8750 C   0  0  0  0  0  0  0  0  0  0  0  0
   22.8610   -9.3230  -17.6860 C   0  0  0  0  0  0  0  0  0  0  0  0
   21.3620   -9.4520  -17.4550 C   0  0  0  0  0  0  0  0  0  0  0  0
   23.6340   -9.7010  -16.4320 C   0  0  0  0  0  0  0  0  0  0  0  0
   24.2640   -7.9960  -20.9450 N   0  0  0  0  0  0  0  0  0  0  0  0
   24.6050   -6.6010  -21.2060 C   0  0  2  0  0  0  0  0  0  0  0  0
   23.8110   -6.0450  -22.3820 C   0  0  0  0  0  0  0  0  0  0  0  0
   23.3430   -4.9010  -22.3370 O   0  0  0  0  0  0  0  0  0  0  0  0
   26.1080   -6.4690  -21.4590 C   0  0  0  0  0  0  0  0  0  0  0  0
   26.5600   -5.0900  -21.9260 C   0  0  0  0  0  0  0  0  0  0  0  0
   26.5810   -4.0540  -20.8130 C   0  0  0  0  0  0  0  0  0  0  0  0
   26.0790   -4.2860  -19.7140 O   0  0  0  0  0  0  0  0  0  0  0  0
   27.1730   -2.8990  -21.0980 N   0  0  0  0  0  0  0  0  0  0  0  0
   23.6480   -6.8380  -23.4430 N   0  0  0  0  0  0  0  0  0  0  0  0
   22.8870   -6.3790  -24.6010 C   0  0  2  0  0  0  0  0  0  0  0  0
   21.4480   -6.0570  -24.2170 C   0  0  0  0  0  0  0  0  0  0  0  0
   20.9190   -4.9970  -24.5740 O   0  0  0  0  0  0  0  0  0  0  0  0
   22.9350   -7.4350  -25.7090 C   0  0  0  0  0  0  0  0  0  0  0  0
   22.2750   -7.0230  -27.0240 C   0  0  0  0  0  0  0  0  0  0  0  0
   20.8320   -7.5080  -27.1110 C   0  0  0  0  0  0  0  0  0  0  0  0
   20.2440   -7.2550  -28.4210 N   0  0  0  0  0  0  0  0  0  0  0  0
   20.2530   -8.1220  -29.4230 C   0  0  0  0  0  0  0  0  0  0  0  0
   20.8070   -9.3170  -29.2980 N   0  0  0  0  0  0  0  0  0  0  0  0
   19.6940   -7.7820  -30.5810 N   0  0  0  0  0  0  0  0  0  0  0  0
   20.7980   -6.9590  -23.4780 N   0  0  0  0  0  0  0  0  0  0  0  0
   19.4080   -6.7300  -23.1040 C   0  0  2  0  0  0  0  0  0  0  0  0
   19.2770   -5.6350  -22.0530 C   0  0  0  0  0  0  0  0  0  0  0  0
   18.2910   -4.8900  -22.0640 O   0  0  0  0  0  0  0  0  0  0  0  0
   18.7740   -8.0290  -22.6110 C   0  0  0  0  0  0  0  0  0  0  0  0
   18.4170   -8.9790  -23.7120 C   0  0  0  0  0  0  0  0  0  0  0  0
   19.3600   -9.7170  -24.3950 N   0  0  0  0  0  0  0  0  0  0  0  0
   17.2200   -9.3020  -24.2560 C   0  0  0  0  0  0  0  0  0  0  0  0
   18.7580  -10.4570  -25.3090 C   0  0  0  0  0  0  0  0  0  0  0  0
   17.4600  -10.2250  -25.2460 N   0  0  0  0  0  0  0  0  0  0  0  0
   20.2480   -5.5200  -21.1440 N   0  0  0  0  0  0  0  0  0  0  0  0
   20.2100   -4.4390  -20.1630 C   0  0  2  0  0  0  0  0  0  0  0  0
   20.2460   -3.0780  -20.8440 C   0  0  0  0  0  0  0  0  0  0  0  0
   19.5180   -2.1600  -20.4510 O   0  0  0  0  0  0  0  0  0  0  0  0
   21.3710   -4.5730  -19.1770 C   0  0  0  0  0  0  0  0  0  0  0  0
   21.2070   -5.5610  -18.0200 C   0  0  0  0  0  0  0  0  0  0  0  0
   22.4770   -5.6160  -17.1840 C   0  0  0  0  0  0  0  0  0  0  0  0
   20.0130   -5.1830  -17.1590 C   0  0  0  0  0  0  0  0  0  0  0  0
   16.8200   -2.3970  -22.4450 N   0  0  0  0  0  0  0  0  0  0  0  0
   15.8300   -2.0590  -21.4300 C   0  0  2  0  0  0  0  0  0  0  0  0
   16.0870   -0.6790  -20.8410 C   0  0  0  0  0  0  0  0  0  0  0  0
   15.1390    0.0340  -20.4940 O   0  0  0  0  0  0  0  0  0  0  0  0
   15.8260   -3.1300  -20.3390 C   0  0  0  0  0  0  0  0  0  0  0  0
   15.3920   -4.4970  -20.8450 C   0  0  0  0  0  0  0  0  0  0  0  0
   15.8710   -5.6340  -19.9640 C   0  0  0  0  0  0  0  0  0  0  0  0
   16.6120   -5.4240  -19.0040 O   0  0  0  0  0  0  0  0  0  0  0  0
   15.4520   -6.8510  -20.2920 N   0  0  0  0  0  0  0  0  0  0  0  0
  2  1  1  1
  3  2  1  0
  4  3  2  0
  5  2  1  0
  6  5  1  0
  7  6  1  0
  8  7  2  0
  9  7  1  0
 11 10  1  6
 12 11  1  0
 13 12  2  0
 14 11  1  0
 15 14  1  0
 16 14  1  0
 17 12  1  0
 18 17  1  0
 19 18  1  0
 20 19  2  0
 18 21  1  1
 22 21  1  0
 24 23  1  1
 25 24  1  0
 26 25  2  0
 27 24  1  0
 28 27  1  0
 29 28  1  0
 30 28  1  0
 32 31  1  6
 33 32  1  0
 34 33  2  0
 35 32  1  0
 36 35  1  0
 37 36  1  0
 38 37  1  0
 39 38  1  0
 41 40  1  0
 42 41  1  0
 43 42  2  0
 41 44  1  1
 46 45  1  1
 47 46  1  0
 48 47  2  0
 49 46  1  0
 50 49  1  0
 51 50  1  0
 52 50  1  0
 53 47  1  0
 54 53  1  0
 55 54  1  0
 56 55  2  0
 54 57  1  1
 58 57  1  0
 59 58  2  0
 60 58  1  0
 62 61  1  1
 63 62  1  0
 64 63  2  0
 65 62  1  0
 66 65  1  0
 67 66  1  0
 68 67  1  0
 69 68  1  0
 70 69  1  0
 71 69  2  0
 72 63  1  0
 73 72  1  0
 74 73  1  0
 75 74  2  0
 73 76  1  1
 77 76  1  0
 78 77  2  0
 79 77  1  0
 80 74  1  0
 81 80  1  0
 82 81  1  0
 83 82  2  0
 81 84  1  1
 85 84  1  0
 86 85  1  0
 87 85  1  0
 88 82  1  0
 89 88  1  0
 90 89  1  0
 91 90  2  0
 89 92  1  6
 93 92  1  0
 94 93  1  0
 95 94  2  0
 96 94  1  0
 97 90  1  0
 98 97  1  0
 99 98  1  0
100 99  2  0
 98101  1  6
102101  1  0
103102  1  0
104103  1  0
105104  1  0
106105  1  0
107105  2  0
108 99  1  0
109108  1  0
110109  1  0
111110  2  0
109112  1  1
113112  1  0
114113  1  0
115113  2  0
116114  2  0
117116  1  0
117115  1  0
118110  1  0
119118  1  0
120119  1  0
121120  2  0
119122  1  1
123122  1  0
124123  1  0
125123  1  0
127126  1  6
128127  1  0
129128  2  0
130127  1  0
131130  1  0
132131  1  0
133132  2  0
134132  1  0
M  END
$$$$
