
     RDKit          3D

123122  0  0  0  0  0  0  0  0999 V2000
    3.3890   15.4750    5.1360 N   0  0  0  0  0  0  0  0  0  0  0  0
    4.6150   16.0120    4.5680 C   0  0  2  0  0  0  0  0  0  0  0  0
    5.6530   16.2520    5.6580 C   0  0  0  0  0  0  0  0  0  0  0  0
    5.3350   16.3700    6.8440 O   0  0  0  0  0  0  0  0  0  0  0  0
    4.3490   17.3190    3.8220 C   0  0  0  0  0  0  0  0  0  0  0  0
    3.2950   17.2240    2.7400 C   0  0  0  0  0  0  0  0  0  0  0  0
    3.0440   18.5820    2.1090 C   0  0  0  0  0  0  0  0  0  0  0  0
    4.1530   19.5000    2.3430 N   0  0  0  0  0  0  0  0  0  0  0  0
    4.4910   20.4890    1.5280 C   0  0  0  0  0  0  0  0  0  0  0  0
    3.8080   20.7380    0.4230 N   0  0  0  0  0  0  0  0  0  0  0  0
    5.5400   21.2500    1.8300 N   0  0  0  0  0  0  0  0  0  0  0  0
    2.9240   10.6210   -9.7320 N   0  0  0  0  0  0  0  0  0  0  0  0
    2.3730   11.2430   -8.5480 C   0  0  0  0  0  0  0  0  0  0  0  0
    1.3980   10.3450   -7.8170 C   0  0  0  0  0  0  0  0  0  0  0  0
    0.4040    9.8940   -8.3950 O   0  0  0  0  0  0  0  0  0  0  0  0
   -1.5140   10.0510   -5.5040 N   0  0  0  0  0  0  0  0  0  0  0  0
   -2.6090   10.8990   -5.0490 C   0  0  2  0  0  0  0  0  0  0  0  0
   -3.5990   10.1400   -4.1720 C   0  0  0  0  0  0  0  0  0  0  0  0
   -4.7640   10.5350   -4.0740 O   0  0  0  0  0  0  0  0  0  0  0  0
   -3.3220   11.5230   -6.2500 C   0  0  0  0  0  0  0  0  0  0  0  0
   -2.4170   12.3850   -7.1030 C   0  0  0  0  0  0  0  0  0  0  0  0
   -1.9030   13.5790   -6.6150 C   0  0  0  0  0  0  0  0  0  0  0  0
   -2.0700   12.0000   -8.3900 C   0  0  0  0  0  0  0  0  0  0  0  0
   -1.0740   14.3670   -7.3870 C   0  0  0  0  0  0  0  0  0  0  0  0
   -1.2400   12.7810   -9.1710 C   0  0  0  0  0  0  0  0  0  0  0  0
   -0.7450   13.9640   -8.6640 C   0  0  0  0  0  0  0  0  0  0  0  0
    0.0830   14.7500   -9.4340 O   0  0  0  0  0  0  0  0  0  0  0  0
   -5.5440   14.8620    2.9400 N   0  0  0  0  0  0  0  0  0  0  0  0
   -5.6790   15.6520    4.1510 C   0  0  2  0  0  0  0  0  0  0  0  0
   -6.9080   16.5380    4.0060 C   0  0  0  0  0  0  0  0  0  0  0  0
   -7.3540   16.8350    2.8950 O   0  0  0  0  0  0  0  0  0  0  0  0
   -4.4320   16.5090    4.4200 C   0  0  0  0  0  0  0  0  0  0  0  0
   -4.1450   17.5430    3.3520 C   0  0  0  0  0  0  0  0  0  0  0  0
   -3.4380   17.2080    2.2080 C   0  0  0  0  0  0  0  0  0  0  0  0
   -4.5760   18.8560    3.4920 C   0  0  0  0  0  0  0  0  0  0  0  0
   -3.1700   18.1490    1.2280 C   0  0  0  0  0  0  0  0  0  0  0  0
   -4.3140   19.8040    2.5160 C   0  0  0  0  0  0  0  0  0  0  0  0
   -3.6110   19.4460    1.3870 C   0  0  0  0  0  0  0  0  0  0  0  0
   -3.3500   20.3890    0.4160 O   0  0  0  0  0  0  0  0  0  0  0  0
   -5.6920   16.0400   -1.9650 N   0  0  0  0  0  0  0  0  0  0  0  0
   -4.7090   15.0030   -2.2350 C   0  0  2  0  0  0  0  0  0  0  0  0
   -3.3050   15.5880   -2.1700 C   0  0  0  0  0  0  0  0  0  0  0  0
   -3.0400   16.6490   -2.7450 O   0  0  0  0  0  0  0  0  0  0  0  0
   -4.9500   14.3770   -3.6100 C   0  0  0  0  0  0  0  0  0  0  0  0
   -4.8850   12.9620   -3.5680 O   0  0  0  0  0  0  0  0  0  0  0  0
   -2.4130   14.8910   -1.4730 N   0  0  0  0  0  0  0  0  0  0  0  0
   -0.9970   15.2060   -1.5510 C   0  0  2  0  0  0  0  0  0  0  0  0
   -0.4710   14.8190   -2.9240 C   0  0  0  0  0  0  0  0  0  0  0  0
   -0.8910   13.8140   -3.5030 O   0  0  0  0  0  0  0  0  0  0  0  0
   -0.2090   14.4500   -0.4770 C   0  0  0  0  0  0  0  0  0  0  0  0
   -0.3940   14.9440    0.9410 C   0  0  0  0  0  0  0  0  0  0  0  0
    0.1280   16.1630    1.3450 C   0  0  0  0  0  0  0  0  0  0  0  0
   -1.0590   14.1730    1.8850 C   0  0  0  0  0  0  0  0  0  0  0  0
   -0.0300   16.6140    2.6410 C   0  0  0  0  0  0  0  0  0  0  0  0
   -1.2190   14.6160    3.1850 C   0  0  0  0  0  0  0  0  0  0  0  0
   -0.7010   15.8360    3.5580 C   0  0  0  0  0  0  0  0  0  0  0  0
   -0.8590   16.2810    4.8510 O   0  0  0  0  0  0  0  0  0  0  0  0
    0.4470   15.6220   -3.4520 N   0  0  0  0  0  0  0  0  0  0  0  0
    1.1990   15.1860   -4.6090 C   0  0  0  0  0  0  0  0  0  0  0  0
    2.5520   14.6470   -4.1940 C   0  0  0  0  0  0  0  0  0  0  0  0
    3.4940   15.4170   -3.9910 O   0  0  0  0  0  0  0  0  0  0  0  0
    2.6670   13.3250   -4.0800 N   0  0  0  0  0  0  0  0  0  0  0  0
    3.8820   12.6800   -3.5860 C   0  0  2  0  0  0  0  0  0  0  0  0
    4.6190   12.0740   -4.7750 C   0  0  0  0  0  0  0  0  0  0  0  0
    4.2610   11.0000   -5.2640 O   0  0  0  0  0  0  0  0  0  0  0  0
    3.5570   11.6280   -2.5280 C   0  0  0  0  0  0  0  0  0  0  0  0
    3.2290   12.2040   -1.1750 C   0  0  0  0  0  0  0  0  0  0  0  0
    3.8220   13.3810   -0.7460 C   0  0  0  0  0  0  0  0  0  0  0  0
    2.3360   11.5650   -0.3290 C   0  0  0  0  0  0  0  0  0  0  0  0
    3.5260   13.9140    0.4950 C   0  0  0  0  0  0  0  0  0  0  0  0
    2.0360   12.0940    0.9160 C   0  0  0  0  0  0  0  0  0  0  0  0
    2.6330   13.2700    1.3270 C   0  0  0  0  0  0  0  0  0  0  0  0
    5.6500   12.7720   -5.2400 N   0  0  0  0  0  0  0  0  0  0  0  0
    6.4990   12.3140   -6.3220 C   0  0  2  0  0  0  0  0  0  0  0  0
    7.9160   12.0930   -5.8070 C   0  0  0  0  0  0  0  0  0  0  0  0
    8.3680   12.8050   -4.9040 O   0  0  0  0  0  0  0  0  0  0  0  0
    6.5210   13.3290   -7.4740 C   0  0  0  0  0  0  0  0  0  0  0  0
    5.2600   13.3290   -8.3240 C   0  0  0  0  0  0  0  0  0  0  0  0
    5.2240   14.4720   -9.3210 C   0  0  0  0  0  0  0  0  0  0  0  0
    6.2310   14.7940   -9.9530 O   0  0  0  0  0  0  0  0  0  0  0  0
    4.0580   15.0910   -9.4690 N   0  0  0  0  0  0  0  0  0  0  0  0
   10.7030   12.8720   -7.0510 N   0  0  0  0  0  0  0  0  0  0  0  0
   11.5650   14.0120   -7.3320 C   0  0  2  0  0  0  0  0  0  0  0  0
   11.2140   15.2370   -6.4960 C   0  0  0  0  0  0  0  0  0  0  0  0
   11.7350   16.3240   -6.7620 O   0  0  0  0  0  0  0  0  0  0  0  0
   11.5020   14.3680   -8.8200 C   0  0  2  0  0  0  0  0  0  0  0  0
   10.6440   13.4440   -9.5010 O   0  0  0  0  0  0  0  0  0  0  0  0
   12.8920   14.3140   -9.4390 C   0  0  0  0  0  0  0  0  0  0  0  0
   10.3460   15.0860   -5.5000 N   0  0  0  0  0  0  0  0  0  0  0  0
    9.9470   16.2010   -4.6580 C   0  0  2  0  0  0  0  0  0  0  0  0
   11.0420   16.5390   -3.6510 C   0  0  0  0  0  0  0  0  0  0  0  0
   11.9340   15.7360   -3.3650 O   0  0  0  0  0  0  0  0  0  0  0  0
    8.6470   15.8790   -3.9180 C   0  0  0  0  0  0  0  0  0  0  0  0
    7.4240   16.0120   -4.8020 C   0  0  0  0  0  0  0  0  0  0  0  0
    7.5330   16.3110   -5.9910 O   0  0  0  0  0  0  0  0  0  0  0  0
    6.2500   15.7860   -4.2240 N   0  0  0  0  0  0  0  0  0  0  0  0
   10.9620   17.7510   -3.1110 N   0  0  0  0  0  0  0  0  0  0  0  0
   11.8500   18.1490   -2.0410 C   0  0  0  0  0  0  0  0  0  0  0  0
   11.4910   17.4710   -0.7330 C   0  0  0  0  0  0  0  0  0  0  0  0
   10.4130   16.8990   -0.5630 O   0  0  0  0  0  0  0  0  0  0  0  0
   12.4270   17.5440    0.2180 N   0  0  0  0  0  0  0  0  0  0  0  0
   12.2390   16.8640    1.4970 C   0  0  2  0  0  0  0  0  0  0  0  0
   11.0410   17.4300    2.2490 C   0  0  0  0  0  0  0  0  0  0  0  0
   10.4200   16.7300    3.0580 O   0  0  0  0  0  0  0  0  0  0  0  0
   13.5300   16.9340    2.3390 C   0  0  0  0  0  0  0  0  0  0  0  0
   14.7430   16.6410    1.4710 C   0  0  0  0  0  0  0  0  0  0  0  0
   13.6700   18.2920    3.0140 C   0  0  0  0  0  0  0  0  0  0  0  0
   10.6920   18.6950    1.9990 N   0  0  0  0  0  0  0  0  0  0  0  0
    9.5040   19.2580    2.6130 C   0  0  0  0  0  0  0  0  0  0  0  0
    8.2180   18.7930    1.9680 C   0  0  0  0  0  0  0  0  0  0  0  0
    7.1660   18.7860    2.6150 O   0  0  0  0  0  0  0  0  0  0  0  0
    8.2760   18.4020    0.6950 N   0  0  0  0  0  0  0  0  0  0  0  0
    7.1170   17.8890   -0.0200 C   0  0  2  0  0  0  0  0  0  0  0  0
    7.0520   16.3670   -0.0350 C   0  0  0  0  0  0  0  0  0  0  0  0
    6.0600   15.8110   -0.5160 O   0  0  0  0  0  0  0  0  0  0  0  0
    7.1120   18.4110   -1.4640 C   0  0  0  0  0  0  0  0  0  0  0  0
    6.7530   19.8770   -1.5990 C   0  0  0  0  0  0  0  0  0  0  0  0
    7.6080   20.8690   -1.1340 C   0  0  0  0  0  0  0  0  0  0  0  0
    5.5650   20.2690   -2.2030 C   0  0  0  0  0  0  0  0  0  0  0  0
    7.2870   22.2090   -1.2580 C   0  0  0  0  0  0  0  0  0  0  0  0
    5.2350   21.6070   -2.3320 C   0  0  0  0  0  0  0  0  0  0  0  0
    6.0990   22.5720   -1.8580 C   0  0  0  0  0  0  0  0  0  0  0  0
    5.7770   23.9040   -1.9840 O   0  0  0  0  0  0  0  0  0  0  0  0
  2  1  1  1
  3  2  1  0
  4  3  2  0
  5  2  1  0
  6  5  1  0
  7  6  1  0
  8  7  1  0
  9  8  1  0
 10  9  1  0
 11  9  2  0
 13 12  1  0
 14 13  1  0
 15 14  2  0
 17 16  1  6
 18 17  1  0
 19 18  2  0
 20 17  1  0
 21 20  1  0
 22 21  2  0
 23 21  1  0
 24 22  1  0
 25 23  2  0
 26 25  1  0
 26 24  2  0
 27 26  1  0
 29 28  1  6
 30 29  1  0
 31 30  2  0
 32 29  1  0
 33 32  1  0
 34 33  2  0
 35 33  1  0
 36 34  1  0
 37 35  2  0
 38 37  1  0
 38 36  2  0
 39 38  1  0
 41 40  1  6
 42 41  1  0
 43 42  2  0
 44 41  1  0
 45 44  1  0
 46 42  1  0
 47 46  1  0
 48 47  1  0
 49 48  2  0
 47 50  1  1
 51 50  1  0
 52 51  2  0
 53 51  1  0
 54 52  1  0
 55 53  2  0
 56 55  1  0
 56 54  2  0
 57 56  1  0
 58 48  1  0
 59 58  1  0
 60 59  1  0
 61 60  2  0
 62 60  1  0
 63 62  1  0
 64 63  1  0
 65 64  2  0
 63 66  1  1
 67 66  1  0
 68 67  2  0
 69 67  1  0
 70 68  1  0
 71 69  2  0
 72 71  1  0
 72 70  2  0
 73 64  1  0
 74 73  1  0
 75 74  1  0
 76 75  2  0
 74 77  1  6
 78 77  1  0
 79 78  1  0
 80 79  2  0
 81 79  1  0
 83 82  1  6
 84 83  1  0
 85 84  2  0
 86 83  1  0
 87 86  1  0
 86 88  1  6
 89 84  1  0
 90 89  1  0
 91 90  1  0
 92 91  2  0
 90 93  1  1
 94 93  1  0
 95 94  2  0
 96 94  1  0
 97 91  1  0
 98 97  1  0
 99 98  1  0
100 99  2  0
101 99  1  0
102101  1  6
103102  1  0
104103  2  0
105102  1  0
106105  1  0
107105  1  0
108103  1  0
109108  1  0
110109  1  0
111110  2  0
112110  1  0
113112  1  0
114113  1  0
115114  2  0
113116  1  6
117116  1  0
118117  2  0
119117  1  0
120118  1  0
121119  2  0
122121  1  0
122120  2  0
123122  1  0
M  END
$$$$
